INIT MASTER(S)
NASTRAN SYSTEM(442)=-1,SYSTEM(319)=1
ID FFinalM,FEMAP
SOL SESTATIC
CEND
  TITLE = Simcenter Nastran Static Analysis Set
  ECHO = NONE
  DISPLACEMENT(PLOT) = ALL
  SPCFORCE(PLOT) = ALL
  OLOAD(PLOT) = ALL
  FORCE(PLOT,CORNER) = ALL
  STRESS(PLOT,CORNER) = ALL
  SPC = 1
  LOAD = 1
BEGIN BULK
$ ***************************************************************************
$   Written by : Femap
$   Version    : 2412.0
$   Translator : Simcenter Nastran
$   From Model : C:\Documents\Grad_School\!AE_Masters_Project\AE_Masters_Project\Nastran\!FinalModels\CompoundTensionStrip3\CQ8\CompoundTensionStrip_CQ8_22_Refined.modfem
$   Date       : Mon Nov 24 17:10:59 2025
$   Output To  : C:\Documents\Grad_School\!AE_Masters_Project\AE_Masters_Project\Nastran\!FinalModels\CompoundTensionStrip3\CQ8\
$ ***************************************************************************
$
PARAM,PRGPST,NO
PARAM,POST,0
PARAM,OGEOM,NO
PARAM,AUTOSPC,YES
PARAM,K6ROT,100.
PARAM,GRDPNT,0
CORD2C         1       0      0.      0.      0.      0.      0.      1.+FEMAPC1
+FEMAPC1      1.      0.      1.        
CORD2S         2       0      0.      0.      0.      0.      0.      1.+FEMAPC2
+FEMAPC2      1.      0.      1.        
$ Femap Load Set 1 : Untitled
FORCE          1      51       0      1.20.83333      0.      0.
FORCE          1     159       0      1.20.83333      0.      0.
FORCE          1   13335       0      1.41.66667      0.      0.
FORCE          1   13336       0      1.41.66667      0.      0.
FORCE          1   13337       0      1.41.66667      0.      0.
FORCE          1   13338       0      1.41.66667      0.      0.
FORCE          1   13339       0      1.41.66667      0.      0.
FORCE          1   13340       0      1.41.66667      0.      0.
FORCE          1   13341       0      1.41.66667      0.      0.
FORCE          1   13342       0      1.41.66667      0.      0.
FORCE          1   13343       0      1.41.66667      0.      0.
FORCE          1   13344       0      1.41.66667      0.      0.
FORCE          1   13345       0      1.41.66667      0.      0.
FORCE          1   13346       0      1.41.66667      0.      0.
FORCE          1   13347       0      1.41.66667      0.      0.
FORCE          1   13348       0      1.41.66667      0.      0.
FORCE          1   13349       0      1.41.66667      0.      0.
FORCE          1   13350       0      1.41.66667      0.      0.
FORCE          1   13351       0      1.41.66667      0.      0.
FORCE          1   13352       0      1.41.66667      0.      0.
$ ... 5 like lines cut
$ Femap Constraint Set 1 : Untitled
SPC1           1       1      96
SPC1           1       1     102
SPC1           1  123456     108
SPC1           1       2     159
SPC1           1       2    8326
SPC1           1       2    8327
SPC1           1       2    8328
SPC1           1       2    8329
SPC1           1       2    8330
SPC1           1       2    8331
SPC1           1       2    8332
SPC1           1       2    8333
SPC1           1       2    8334
SPC1           1       2    8335
SPC1           1       2    8336
SPC1           1       2    8337
SPC1           1       2    8338
SPC1           1       2    8339
SPC1           1       2    8340
SPC1           1       2    8341
$ ... 331 like lines cut
$ Femap Property 1 : MEMBRANE Property
PSHELL         1       1     .25                                      0.
$ Femap Material 1 : 2024-T351 Al Plate: t = 0.25 to 0.5 inches
MAT1           1  1.07+7             .332.5906-4 1.255-5     70.        +       
+         42000.  40000.  38000.
MAT4           1.0016435  83.0762.5906-4                        
GRID           1       05.992988.3749992      0.       0
GRID           5       05.992988.7499985      0.       0
GRID           9       05.742989 .999998      0.       0
GRID          13       05.367989 .999998      0.       0
GRID          26       06.492987.3749993      0.       0
GRID          30       06.492987.7499985      0.       0
GRID          46       05.3679891.392914      0.       0
GRID          51       09.592981.7499985      0.       0
GRID          67       05.2316561.535761      0.       0
GRID          68       05.0953231.678608      0.       0
GRID          69       0 4.958991.821455      0.       0
GRID          70       04.8226571.964302      0.       0
GRID          71       04.6863242.107149      0.       0
GRID          72       04.5499912.249995      0.       0
GRID          78       03.4124932.249995      0.       0
GRID          84       02.2749952.249995      0.       0
GRID          90       01.1374982.249995      0.       0
GRID          96       0      0.2.249995      0.       0
GRID         102       0      0.1.124998      0.       0
GRID         108       0      0.      0.      0.       0
$ ... 12238 like lines cut
CQUAD8      9819       1       1   10743   10763    9552   10973   10974+       
+          10975    9723                                                
CQUAD8      9820       1   10743   10744   10764   10763   10976   10977+       
+          10978   10974                                                
CQUAD8      9821       1   10744   10745   10765   10764   10979   10980+       
+          10981   10977                                                
CQUAD8      9822       1   10745   10746   10766   10765   10982   10983+       
+          10984   10980                                                
CQUAD8      9823       1   10746   10747   10767   10766   10985   10986+       
+          10987   10983                                                
CQUAD8      9824       1   10747   10748   10768   10767    5782   10988+       
+          10989   10986                                                
CQUAD8      9825       1   10748   10749   10769   10768   10990   10991+       
+          10992   10988                                                
CQUAD8      9826       1   10749   10750   10770   10769   10993   10994+       
+          10995   10991                                                
CQUAD8      9827       1   10750   10751   10771   10770   10996   10997+       
+          10998   10994                                                
CQUAD8      9828       1   10751   10752   10772   10771   10999   11000+       
+          11001   10997                                                
CQUAD8      9829       1   10752       5    9513   10772   11002    9738+       
+          11003   11000                                                
CQUAD8      9830       1    9552   10763   10773    9551   10975   11004+       
+          11005    9742                                                
CQUAD8      9831       1   10763   10764   10774   10773   10978   11006+       
+          11007   11004                                                
CQUAD8      9832       1   10764   10765   10775   10774   10981   11008+       
+          11009   11006                                                
CQUAD8      9833       1   10765   10766   10776   10775   10984   11010+       
+          11011   11008                                                
CQUAD8      9834       1   10766   10767   10777   10776   10987   11012+       
+          11013   11010                                                
CQUAD8      9835       1   10767   10768   10778   10777   10989   11014+       
+          11015   11012                                                
CQUAD8      9836       1   10768   10769   10779   10778   10992   11016+       
+          11017   11014                                                
CQUAD8      9837       1   10769   10770   10780   10779   10995   11018+       
+          11019   11016                                                
CQUAD8      9838       1   10770   10771   10781   10780   10998   11020+       
+          11021   11018                                                
$ ... 928 like lines cut
CQUAD4     10344       1   10753       9   12151   12171                
CQUAD4     10345       1   12171   12169   10754   10753                
CQUAD4     10346       1   12171   12151   12152   12169                
CQUAD4     10347       1   10754   12169   12170   10755                
CQUAD4     10348       1   12170   12168   10756   10755                
CQUAD4     10349       1   12170   12169   12173   12172                
CQUAD4     10350       1   12172   12173   12153   12165                
CQUAD4     10351       1   12170   12172   12188   12168                
CQUAD4     10352       1   12169   12152   12153   12173                
CQUAD4     10353       1   12168   12188   12166   12174                
CQUAD4     10354       1   12174   10757   10756   12168                
CQUAD4     10355       1   10758   10757   12174   12175                
CQUAD4     10356       1   10758   12175   12167   10759                
CQUAD4     10357       1   12174   12166   12167   12175                
CQUAD4     10358       1   12167   12164   10760   10759                
CQUAD4     10359       1   12163   12164   12167   12181                
CQUAD4     10360       1   12181   12180   12162   12163                
CQUAD4     10361       1   12178   12179   12180   12181                
CQUAD4     10362       1   12181   12167   12166   12178                
CQUAD4     10363       1   12177   12161   12162   12180                
$ ... 16 like lines cut
CTRIA3     10380       1    3827    3828   12185                        
CQUAD4     10381       1   12162   12161    3826    3827                
CQUAD4     10382       1   12161   12189    3825    3826                
CQUAD4     10383       1   12160   12159    3824    3825                
CQUAD4     10384       1   12157    3823    3824   12159                
CTRIA3     10385       1   12159   12156   12157                        
CQUAD4     10386       1    3822    3823   12157   12158                
CTRIA3     10387       1   12158      46    3822                        
CQUAD4     10388       1   12188   12172   12165   12166                
CQUAD4     10389       1   12189   12183   12160    3825                
CQUAD4     12976       1   15579   15575   15576   15582                
CQUAD4     12977       1   15577   15581   15580   15582                
CQUAD4     12978       1   15577   15572   15573   15581                
CQUAD4     12979       1   15578   15579   15582   15580                
CQUAD4     12980       1   15582   15576   24867   15577                
CQUAD4     12981       1   15573   15574   15580   15581                
CQUAD4     12982       1   15571   15578   15580   15570                
CQUAD4     12983       1   15574   15569   15570   15580                
CQUAD4     12984       1   15565   15566   15578   15571                
CQUAD4     12985       1   15566   15567   15579   15578                
CQUAD4     12986       1   15575   15579   15567   15568                
CQUAD4     12987       1   15575   15568   15475   15476                
CQUAD4     12988       1   15576   15575   15476   15477                
CQUAD4     12989       1   15572   15577   15479   15480                
CQUAD4     12990       1   15478   15479   15577   24867                
CQUAD4     12991       1   15481   15561   15572   15480                
CQUAD4     12992       1   15573   15572   15561   15562                
CQUAD4     12993       1   15569   15574   15563   15564                
$ ... 9217 like lines cut
CTRIA3     22211       1   24615   24614   24606                        
CQUAD4     22212       1   24613   24605   24606   24614                
CQUAD4     22213       1   24608   24609   24616   24607                
CQUAD4     22214       1   24603   24604   24605   24613                
CQUAD4     22215       1   24590   24591   24609   24608                
CQUAD4     22216       1   24610   24609   24591   24592                
CQUAD4     22217       1   24611   24610   24592   24593                
CQUAD4     22218       1   14558   24612   24594   14557                
CQUAD4     22219       1   24593   24594   24612   24611                
CQUAD4     22220       1   24595   24596   24605   24604                
CQUAD4     22221       1   24605   24596   24597   24606                
CQUAD4     22222       1   24598   24607   24606   24597                
CQUAD4     22223       1   24590   24608   24599   24589                
CQUAD4     22224       1   24598   24599   24608   24607                
CQUAD4     22225       1    7475   24583   24600   14563                
CQUAD4     22226       1   24601   24600   24583   24584                
CQUAD4     22227       1   24602   24601   24584   24585                
CQUAD4     22228       1   24595   24604   24587   24588                
CQUAD4     22229       1   24586   24587   24604   24603                
CQUAD4     22230       1   24585   24586   24603   24602                
CQUAD4     22231       1   24576   24577   24595   24588                
$ ... 1133 like lines cut
ENDDATA 3d15e770
