INIT MASTER(S)
NASTRAN SYSTEM(442)=-1,SYSTEM(319)=1
ID FFinalM,FEMAP
SOL SESTATIC
CEND
  TITLE = Simcenter Nastran Static Analysis Set
  ECHO = NONE
  DISPLACEMENT(PLOT) = ALL
  SPCFORCE(PLOT) = ALL
  OLOAD(PLOT) = ALL
  FORCE(PLOT,CORNER) = ALL
  STRESS(PLOT,CORNER) = ALL
  SPC = 1
  LOAD = 1
BEGIN BULK
$ ***************************************************************************
$   Written by : Femap
$   Version    : 2412.0
$   Translator : Simcenter Nastran
$   From Model : C:\Documents\Grad_School\!AE_Masters_Project\AE_Masters_Project\Nastran\!FinalModels\CompoundTensionStrip3\CQ8\CompoundTensionStrip_CQ8_18.modfem
$   Date       : Mon Nov 24 16:05:17 2025
$   Output To  : C:\Documents\Grad_School\!AE_Masters_Project\AE_Masters_Project\Nastran\!FinalModels\CompoundTensionStrip3\CQ8\
$ ***************************************************************************
$
PARAM,PRGPST,NO
PARAM,POST,0
PARAM,OGEOM,NO
PARAM,AUTOSPC,YES
PARAM,K6ROT,100.
PARAM,GRDPNT,0
CORD2C         1       0      0.      0.      0.      0.      0.      1.+FEMAPC1
+FEMAPC1      1.      0.      1.        
CORD2S         2       0      0.      0.      0.      0.      0.      1.+FEMAPC2
+FEMAPC2      1.      0.      1.        
$ Femap Load Set 1 : Untitled
FORCE          1      51       0      1.    125.      0.      0.
FORCE          1     159       0      1.    125.      0.      0.
FORCE          1     160       0      1.    250.      0.      0.
FORCE          1     161       0      1.    250.      0.      0.
FORCE          1     162       0      1.    250.      0.      0.
$ Femap Constraint Set 1 : Untitled
SPC1           1       1      96
SPC1           1       1      97
SPC1           1       1      98
SPC1           1       1      99
SPC1           1       1     100
SPC1           1       1     101
SPC1           1       1     102
SPC1           1       1     103
SPC1           1       1     104
SPC1           1       1     105
SPC1           1       1     106
SPC1           1       1     107
SPC1           1  123456     108
SPC1           1       2     109
SPC1           1       2     110
SPC1           1       2     111
SPC1           1       2     112
SPC1           1       2     113
SPC1           1       2     114
SPC1           1       2     115
$ ... 44 like lines cut
$ Femap Property 1 : MEMBRANE Property
PSHELL         1       1     .25                                      0.
$ Femap Material 1 : 2024-T351 Al Plate: t = 0.25 to 0.5 inches
MAT1           1  1.07+7             .332.5906-4 1.255-5     70.        +       
+         42000.  40000.  38000.
MAT4           1.0016435  83.0762.5906-4                        
GRID           1       05.992988.3749992      0.       0
GRID           5       05.992988.7499985      0.       0
GRID           9       05.742989 .999998      0.       0
GRID          13       05.367989 .999998      0.       0
GRID          26       06.492987.3749993      0.       0
GRID          30       06.492987.7499985      0.       0
GRID          46       05.3679891.392914      0.       0
GRID          51       09.592981.7499985      0.       0
GRID          52       09.399231.7499985      0.       0
GRID          53       09.205482.7499985      0.       0
GRID          54       09.011732.7499985      0.       0
GRID          55       08.817982.7499985      0.       0
GRID          56       08.624233.7499985      0.       0
GRID          57       08.430483.7499985      0.       0
GRID          58       08.236734.7499985      0.       0
GRID          59       08.042984.7499985      0.       0
GRID          60       07.849234.7499985      0.       0
GRID          61       07.655485.7499985      0.       0
GRID          62       07.461735.7499985      0.       0
GRID          63       07.267985.7499985      0.       0
$ ... 1620 like lines cut
CQUAD4      4133       1    3873    3872    3869    3870                
CQUAD4      4134       1    3446    3445    3884    3873                
CQUAD4      4135       1    3446    3873    3870    3871                
CQUAD4      4136       1    3447    3446    3871    3867                
CQUAD4      4137       1    3444    3443    3875    3874                
CQUAD4      4138       1    3874    3875    3763    3872                
CQUAD4      4139       1    3445    3444    3874    3884                
CQUAD4      4140       1    3443       9    3763    3875                
CQUAD4      4141       1    3872    3763    3764    3869                
CQUAD4      4142       1    3870    3869    3877    3876                
CQUAD4      4143       1    3876    3877    3765    3868                
CQUAD4      4144       1    3869    3764    3765    3877                
CQUAD4      4145       1    3871    3870    3876    3878                
CQUAD4      4146       1    3867    3871    3878    3866                
CQUAD4      4147       1    3866    3878    3876    3868                
CQUAD4      4148       1    3866    3868    3879    3865                
CQUAD4      4149       1    3865    3879    3766    3864                
CQUAD4      4150       1    3868    3765    3766    3879                
CQUAD4      4151       1    3448    3447    3867    3880                
CQUAD4      4152       1    3449    3448    3880    3863                
$ ... 16 like lines cut
CTRIA3      4169       1    3824    3858    3823                        
CTRIA3      4170       1    3822    3769      46                        
CQUAD4      4171       1    3884    3874    3872    3873                
CTRIA3      4172       1    3823    3769    3822                        
CQUAD4      4173       1    4207    4218    4220    4221                
CQUAD4      4174       1    4206    4207    4221    4215                
CQUAD4      4175       1    4215    4221    4220    4219                
CQUAD4      4176       1    4220    3459    2048    4219                
CQUAD4      4177       1    4218    3460    3459    4220                
CQUAD4      4178       1    4219    2048    3458    4222                
CQUAD4      4179       1    4215    4219    4222    4214                
CQUAD4      4180       1    4222    3458    3457    4214                
CQUAD4      4181       1    4218    4217    3461    3460                
CQUAD4      4182       1    4207    4208    4217    4218                
CQUAD4      4183       1    4217    4223    3462    3461                
CQUAD4      4184       1    4209    3463    3462    4223                
CQUAD4      4185       1    4208    4209    4223    4217                
CQUAD4      4186       1    4224    3456    3455    4216                
CQUAD4      4187       1    4214    3457    3456    4224                
CQUAD4      4188       1    4213    4214    4224    4216                
CQUAD4      4189       1    4216    3455    3454    4225                
CQUAD4      4190       1    4213    4216    4225    4212                
CQUAD4      4191       1    4225    3454    3453    4212                
CQUAD4      4192       1    4212    3453    3452    4211                
$ ... 656 like lines cut
CQUAD8      4849       1    3466       1    3419    4482    4621    4618+       
+           4619    4620                                                
CQUAD8      4850       1    4482    3419    3420    4483    4619    4622+       
+           4623    4624                                                
CQUAD8      4851       1    4483    3420    3421    4484    4623    4625+       
+           4626    4627                                                
CQUAD8      4852       1    4484    3421    3422    4485    4626    4628+       
+           4629    4630                                                
CQUAD8      4853       1    4485    3422    3423    4486    4629    4631+       
+           4632    4633                                                
CQUAD8      4854       1    4486    3423    3424    4487    4632    4634+       
+           4635    4636                                                
CQUAD8      4855       1    4487    3424    3425    4488    4635    4637+       
+           4638    4639                                                
CQUAD8      4856       1    4488    3425    3426    4489    4638    4640+       
+           4641    4642                                                
CQUAD8      4857       1    4489    3426       5    3427    4641    4643+       
+           4644    4645                                                
CQUAD8      4858       1    3465    3466    4482    4490    4648    4620+       
+           4646    4647                                                
CQUAD8      4859       1    4490    4482    4483    4491    4646    4624+       
+           4649    4650                                                
CQUAD8      4860       1    4491    4483    4484    4492    4649    4627+       
+           4651    4652                                                
CQUAD8      4861       1    4492    4484    4485    4493    4651    4630+       
+           4653    4654                                                
CQUAD8      4862       1    4493    4485    4486    4494    4653    4633+       
+           4655    4656                                                
CQUAD8      4863       1    4494    4486    4487    4495    4655    4636+       
+           4657    4658                                                
CQUAD8      4864       1    4495    4487    4488    4496    4657    4639+       
+           4659    4660                                                
CQUAD8      4865       1    4496    4488    4489    4497    4659    4642+       
+           4661    4662                                                
CQUAD8      4866       1    4497    4489    3427    3428    4661    4645+       
+           4663    4664                                                
CQUAD8      4867       1    3464    3465    4490    4498    4667    4647+       
+           4665    4666                                                
CQUAD8      4868       1    4498    4490    4491    4499    4665    4650+       
+           4668    4669                                                
$ ... 500 like lines cut
ENDDATA e4285a21
