INIT MASTER(S)
NASTRAN SYSTEM(442)=-1,SYSTEM(319)=1
ID FFinalM,FEMAP
SOL SESTATIC
CEND
  TITLE = Simcenter Nastran Static Analysis Set
  ECHO = NONE
  DISPLACEMENT(PLOT) = ALL
  SPCFORCE(PLOT) = ALL
  OLOAD(PLOT) = ALL
  FORCE(PLOT,CORNER) = ALL
  STRESS(PLOT,CORNER) = ALL
  SPC = 1
  LOAD = 1
BEGIN BULK
$ ***************************************************************************
$   Written by : Femap
$   Version    : 2412.0
$   Translator : Simcenter Nastran
$   From Model : C:\Documents\Grad_School\!AE_Masters_Project\AE_Masters_Project\Nastran\!FinalModels\CompoundTensionStrip3\CQ8\CompoundTensionStrip_CQ8_7.modfem
$   Date       : Mon Nov 24 16:02:33 2025
$   Output To  : C:\Documents\Grad_School\!AE_Masters_Project\AE_Masters_Project\Nastran\!FinalModels\CompoundTensionStrip3\CQ8\
$ ***************************************************************************
$
PARAM,PRGPST,NO
PARAM,POST,0
PARAM,OGEOM,NO
PARAM,AUTOSPC,YES
PARAM,K6ROT,100.
PARAM,GRDPNT,0
CORD2C         1       0      0.      0.      0.      0.      0.      1.+FEMAPC1
+FEMAPC1      1.      0.      1.        
CORD2S         2       0      0.      0.      0.      0.      0.      1.+FEMAPC2
+FEMAPC2      1.      0.      1.        
$ Femap Load Set 1 : Untitled
FORCE          1      51       0      1.    125.      0.      0.
FORCE          1     159       0      1.    125.      0.      0.
FORCE          1     160       0      1.    250.      0.      0.
FORCE          1     161       0      1.    250.      0.      0.
FORCE          1     162       0      1.    250.      0.      0.
$ Femap Constraint Set 1 : Untitled
SPC1           1       1      96
SPC1           1       1      97
SPC1           1       1      98
SPC1           1       1      99
SPC1           1       1     100
SPC1           1       1     101
SPC1           1       1     102
SPC1           1       1     103
SPC1           1       1     104
SPC1           1       1     105
SPC1           1       1     106
SPC1           1       1     107
SPC1           1  123456     108
SPC1           1       2     109
SPC1           1       2     110
SPC1           1       2     111
SPC1           1       2     112
SPC1           1       2     113
SPC1           1       2     114
SPC1           1       2     115
$ ... 44 like lines cut
$ Femap Property 1 : MEMBRANE Property
PSHELL         1       1     .25                                      0.
$ Femap Material 1 : 2024-T351 Al Plate: t = 0.25 to 0.5 inches
MAT1           1  1.07+7             .332.5906-4 1.255-5     70.        +       
+         42000.  40000.  38000.
MAT4           1.0016435  83.0762.5906-4                        
GRID           1       05.992988.3749992      0.       0
GRID           2       05.992988.4687491      0.       0
GRID           3       05.992988.5624989      0.       0
GRID           4       05.992988.6562487      0.       0
GRID           5       05.992988.7499985      0.       0
GRID           9       05.742989 .999998      0.       0
GRID          10       05.649239 .999998      0.       0
GRID          11       05.555489 .999998      0.       0
GRID          12       05.461739 .999998      0.       0
GRID          13       05.367989 .999998      0.       0
GRID          26       06.492987.3749993      0.       0
GRID          27       06.492987.4687491      0.       0
GRID          28       06.492987.5624989      0.       0
GRID          29       06.492987.6562487      0.       0
GRID          30       06.492987.7499985      0.       0
GRID          31       06.367987.7499985      0.       0
GRID          32       06.242988.7499985      0.       0
GRID          33       06.117988.7499985      0.       0
GRID          34       06.117988.3749993      0.       0
GRID          35       06.242988.3749993      0.       0
$ ... 704 like lines cut
CQUAD4       960       1      10       9     958     963                
CQUAD4       961       1      11      10     963     961                
CQUAD4       962       1     961     963     958     959                
CQUAD4       963       1      12      11     961     962                
CQUAD4       964       1      13      12     962     957                
CQUAD4       965       1     962     961     965     964                
CQUAD4       966       1      47     964     965     960                
CQUAD4       967       1     957     962     964      47                
CTRIA3       968       1     965     961     959                        
CTRIA3       969       1     956     960      46                        
CTRIA3       970       1     965     959     960                        
CTRIA3       971       1      47     960     956                        
CQUAD4       972       1    1256    1257    1259    1260                
CQUAD4       973       1    1255    1256    1260    1254                
CQUAD4       974       1    1260    1259    1258    1254                
CQUAD4       975       1    1259    1252    1253    1258                
CQUAD4       976       1    1257    1251    1252    1259                
CQUAD4       977       1    1254    1258    1241    1242                
CQUAD4       978       1    1258    1253    1240    1241                
CQUAD4       979       1    1245    1246    1251    1257                
CQUAD4       980       1    1244    1245    1257    1256                
CQUAD4       981       1    1243    1244    1256    1255                
CQUAD4       982       1    1246    1247    1248    1251                
CQUAD4       983       1    1251    1248    1249    1252                
CQUAD4       984       1    1253    1250    1239    1240                
CQUAD4       985       1    1252    1249    1250    1253                
CQUAD4       986       1    1250    1234    1235    1239                
CQUAD4       987       1    1249    1233    1234    1250                
CQUAD4       988       1    1248    1232    1233    1249                
CQUAD4       989       1    1247    1231    1232    1248                
CQUAD4       990       1    1262    1261    1245    1244                
CQUAD4       991       1    1236    1237    1261    1262                
$ ... 482 like lines cut
CQUAD8      1474       1     558       1       2    1403    1424    1421+       
+           1422    1423                                                
CQUAD8      1475       1    1403       2       3    1404    1422    1425+       
+           1426    1427                                                
CQUAD8      1476       1    1404       3       4    1405    1426    1428+       
+           1429    1430                                                
CQUAD8      1477       1    1405       4       5     547    1429    1431+       
+           1432    1433                                                
CQUAD8      1478       1     557     558    1403    1406    1436    1423+       
+           1434    1435                                                
CQUAD8      1479       1    1406    1403    1404    1407    1434    1427+       
+           1437    1438                                                
CQUAD8      1480       1    1407    1404    1405    1408    1437    1430+       
+           1439    1440                                                
CQUAD8      1481       1    1408    1405     547     548    1439    1433+       
+           1441    1442                                                
CQUAD8      1482       1     556     557    1406    1409    1445    1435+       
+           1443    1444                                                
CQUAD8      1483       1    1409    1406    1407    1410    1443    1438+       
+           1446    1447                                                
CQUAD8      1484       1    1410    1407    1408    1411    1446    1440+       
+           1448    1449                                                
CQUAD8      1485       1    1411    1408     548     549    1448    1442+       
+           1450    1451                                                
CQUAD8      1486       1     555     556    1409    1412    1454    1444+       
+           1452    1453                                                
CQUAD8      1487       1    1412    1409    1410    1413    1452    1447+       
+           1455    1456                                                
CQUAD8      1488       1    1413    1410    1411    1414    1455    1449+       
+           1457    1458                                                
CQUAD8      1489       1    1414    1411     549     550    1457    1451+       
+           1459    1460                                                
CQUAD8      1490       1     555    1412    1415     554    1453    1461+       
+           1462    1463                                                
CQUAD8      1491       1    1412    1413    1416    1415    1456    1464+       
+           1465    1461                                                
CQUAD8      1492       1    1413    1414    1417    1416    1458    1466+       
+           1467    1464                                                
CQUAD8      1493       1    1414     550     551    1417    1460    1468+       
+           1469    1466                                                
$ ... 48 like lines cut
ENDDATA a2bfe746
