INIT MASTER(S)
NASTRAN SYSTEM(442)=-1,SYSTEM(319)=1
ID FFinalM,FEMAP
SOL SESTATIC
CEND
  TITLE = Simcenter Nastran Static Analysis Set
  ECHO = NONE
  DISPLACEMENT(PLOT) = ALL
  SPCFORCE(PLOT) = ALL
  OLOAD(PLOT) = ALL
  FORCE(PLOT,CORNER) = ALL
  STRESS(PLOT,CORNER) = ALL
  SPC = 1
  LOAD = 1
BEGIN BULK
$ ***************************************************************************
$   Written by : Femap
$   Version    : 2412.0
$   Translator : Simcenter Nastran
$   From Model : C:\Documents\Grad_School\!AE_Masters_Project\AE_Masters_Project\Nastran\!FinalModels\CompoundTensionStrip3\CQ8\CompoundTensionStrip_CQ8_16.modfem
$   Date       : Mon Nov 24 16:04:46 2025
$   Output To  : C:\Documents\Grad_School\!AE_Masters_Project\AE_Masters_Project\Nastran\!FinalModels\CompoundTensionStrip3\CQ8\
$ ***************************************************************************
$
PARAM,PRGPST,NO
PARAM,POST,0
PARAM,OGEOM,NO
PARAM,AUTOSPC,YES
PARAM,K6ROT,100.
PARAM,GRDPNT,0
CORD2C         1       0      0.      0.      0.      0.      0.      1.+FEMAPC1
+FEMAPC1      1.      0.      1.        
CORD2S         2       0      0.      0.      0.      0.      0.      1.+FEMAPC2
+FEMAPC2      1.      0.      1.        
$ Femap Load Set 1 : Untitled
FORCE          1      51       0      1.    125.      0.      0.
FORCE          1     159       0      1.    125.      0.      0.
FORCE          1     160       0      1.    250.      0.      0.
FORCE          1     161       0      1.    250.      0.      0.
FORCE          1     162       0      1.    250.      0.      0.
$ Femap Constraint Set 1 : Untitled
SPC1           1       1      96
SPC1           1       1      97
SPC1           1       1      98
SPC1           1       1      99
SPC1           1       1     100
SPC1           1       1     101
SPC1           1       1     102
SPC1           1       1     103
SPC1           1       1     104
SPC1           1       1     105
SPC1           1       1     106
SPC1           1       1     107
SPC1           1  123456     108
SPC1           1       2     109
SPC1           1       2     110
SPC1           1       2     111
SPC1           1       2     112
SPC1           1       2     113
SPC1           1       2     114
SPC1           1       2     115
$ ... 44 like lines cut
$ Femap Property 1 : MEMBRANE Property
PSHELL         1       1     .25                                      0.
$ Femap Material 1 : 2024-T351 Al Plate: t = 0.25 to 0.5 inches
MAT1           1  1.07+7             .332.5906-4 1.255-5     70.        +       
+         42000.  40000.  38000.
MAT4           1.0016435  83.0762.5906-4                        
GRID           1       05.992988.3749992      0.       0
GRID           5       05.992988.7499985      0.       0
GRID           9       05.742989 .999998      0.       0
GRID          13       05.367989 .999998      0.       0
GRID          26       06.492987.3749993      0.       0
GRID          30       06.492987.7499985      0.       0
GRID          46       05.3679891.392914      0.       0
GRID          51       09.592981.7499985      0.       0
GRID          52       09.399231.7499985      0.       0
GRID          53       09.205482.7499985      0.       0
GRID          54       09.011732.7499985      0.       0
GRID          55       08.817982.7499985      0.       0
GRID          56       08.624233.7499985      0.       0
GRID          57       08.430483.7499985      0.       0
GRID          58       08.236734.7499985      0.       0
GRID          59       08.042984.7499985      0.       0
GRID          60       07.849234.7499985      0.       0
GRID          61       07.655485.7499985      0.       0
GRID          62       07.461735.7499985      0.       0
GRID          63       07.267985.7499985      0.       0
$ ... 1304 like lines cut
CQUAD4      3032       1    2035       9    2827    2842                
CQUAD4      3033       1    2036    2035    2842    2840                
CQUAD4      3034       1    2840    2842    2827    2828                
CQUAD4      3035       1    2037    2036    2840    2841                
CQUAD4      3036       1    2038    2037    2841    2839                
CQUAD4      3037       1    2841    2840    2844    2843                
CQUAD4      3038       1    2843    2844    2829    2838                
CQUAD4      3039       1    2839    2841    2843    2848                
CQUAD4      3040       1    2844    2840    2828    2829                
CQUAD4      3041       1    2039    2038    2839    2837                
CQUAD4      3042       1    2837    2839    2848    2836                
CQUAD4      3043       1    2836    2838    2845    2835                
CQUAD4      3044       1    2835    2845    2830    2834                
CQUAD4      3045       1    2838    2829    2830    2845                
CQUAD4      3046       1    2834    2830    2831    2833                
CQUAD4      3047       1    2846    2837    2836    2847                
CQUAD4      3048       1    2826    2846    2847    2825                
CQUAD4      3049       1    2847    2836    2835    2825                
CQUAD4      3050       1    2040    2039    2837    2846                
CQUAD4      3051       1      13    2040    2846    2826                
CQUAD4      3052       1    2824    2834    2833    2823                
CQUAD4      3053       1    2825    2835    2834    2824                
CQUAD4      3054       1    2833    2831    2832    2822                
CTRIA3      3055       1    2823    2833    2822                        
CTRIA3      3056       1    2821    2832      46                        
CQUAD4      3057       1    2848    2843    2838    2836                
CTRIA3      3058       1    2822    2832    2821                        
CQUAD4      3059       1    3120    3121    2049    3122                
CQUAD4      3060       1    3118    3120    3122    3117                
CQUAD4      3061       1    3117    3122    2049    2048                
CQUAD4      3062       1    3121    3119    2050    2049                
CQUAD4      3063       1    3119    3409    2051    2050                
CQUAD4      3064       1    3409    3113    2052    2051                
CQUAD4      3065       1    3117    2048    2047    3116                
CQUAD4      3066       1    3116    2047    2046    3115                
CQUAD4      3067       1    3123    3117    3116    3124                
CQUAD4      3068       1    3124    3116    3115    3108                
CQUAD4      3069       1    3125    3118    3117    3123                
CQUAD4      3070       1    3110    3111    3118    3125                
CQUAD4      3071       1    3115    2046    2045    3126                
CQUAD4      3072       1    3108    3115    3126    3107                
CQUAD4      3073       1    3126    2045    2044    3107                
CQUAD4      3074       1    3406    2042    2041    3105                
CTRIA3      3075       1    3100    3106    3406                        
CQUAD4      3076       1    3105    2041      13    3099                
CQUAD4      3077       1    3107    2044    2043    3106                
CQUAD4      3078       1    3113    3404    2053    2052                
CQUAD4      3079       1    3404    3114    2054    2053                
CQUAD4      3080       1    3114    3097    2055    2054                
CQUAD4      3081       1    3091    3092    3097    3114                
CQUAD4      3082       1    3091    3114    3404    3113                
CQUAD4      3083       1    3090    3091    3113    3112                
CQUAD4      3084       1    3089    3090    3112    3111                
CQUAD4      3085       1    3088    3089    3111    3110                
CQUAD4      3086       1    3100    3406    3105    3099                
CQUAD4      3087       1    3101    3107    3106    3100                
CQUAD4      3088       1    3102    3108    3107    3101                
CQUAD4      3089       1    3099      13    2826    3098                
CQUAD4      3090       1    3103    3109    3108    3102                
CQUAD4      3091       1    3098    2826    2825    3052                
CQUAD4      3092       1    3147    3145    3139    3140                
CQUAD4      3093       1    3146    3144    3145    3147                
CQUAD4      3094       1    3146    3147    3140    3141                
CQUAD4      3095       1    3137    3146    3141    3136                
$ ... 609 like lines cut
CQUAD8      3705       1    2055       1    2014    3419    3512    3509+       
+           3510    3511                                                
CQUAD8      3706       1    3419    2014    2015    3420    3510    3513+       
+           3514    3515                                                
CQUAD8      3707       1    3420    2015    2016    3421    3514    3516+       
+           3517    3518                                                
CQUAD8      3708       1    3421    2016    2017    3422    3517    3519+       
+           3520    3521                                                
CQUAD8      3709       1    3422    2017    2018    3423    3520    3522+       
+           3523    3524                                                
CQUAD8      3710       1    3423    2018    2019    3424    3523    3525+       
+           3526    3527                                                
CQUAD8      3711       1    3424    2019       5    2020    3526    3528+       
+           3529    3530                                                
CQUAD8      3712       1    2054    2055    3419    3425    3533    3511+       
+           3531    3532                                                
CQUAD8      3713       1    3425    3419    3420    3426    3531    3515+       
+           3534    3535                                                
CQUAD8      3714       1    3426    3420    3421    3427    3534    3518+       
+           3536    3537                                                
CQUAD8      3715       1    3427    3421    3422    3428    3536    3521+       
+           3538    3539                                                
CQUAD8      3716       1    3428    3422    3423    3429    3538    3524+       
+           3540    3541                                                
CQUAD8      3717       1    3429    3423    3424    3430    3540    3527+       
+           3542    3543                                                
CQUAD8      3718       1    3430    3424    2020    2021    3542    3530+       
+           3544    3545                                                
CQUAD8      3719       1    2053    2054    3425    3431    3548    3532+       
+           3546    3547                                                
CQUAD8      3720       1    3431    3425    3426    3432    3546    3535+       
+           3549    3550                                                
CQUAD8      3721       1    3432    3426    3427    3433    3549    3537+       
+           3551    3552                                                
CQUAD8      3722       1    3433    3427    3428    3434    3551    3539+       
+           3553    3554                                                
CQUAD8      3723       1    3434    3428    3429    3435    3553    3541+       
+           3555    3556                                                
CQUAD8      3724       1    3435    3429    3430    3436    3555    3543+       
+           3557    3558                                                
$ ... 324 like lines cut
ENDDATA 7353eb51
