INIT MASTER(S)
NASTRAN SYSTEM(442)=-1,SYSTEM(319)=1
ID FFinalM,FEMAP
SOL SESTATIC
CEND
  TITLE = Simcenter Nastran Static Analysis Set
  ECHO = NONE
  DISPLACEMENT(PLOT) = ALL
  SPCFORCE(PLOT) = ALL
  OLOAD(PLOT) = ALL
  FORCE(PLOT,CORNER) = ALL
  STRESS(PLOT,CORNER) = ALL
  SPC = 1
  LOAD = 1
BEGIN BULK
$ ***************************************************************************
$   Written by : Femap
$   Version    : 2412.0
$   Translator : Simcenter Nastran
$   From Model : C:\Documents\Grad_School\!AE_Masters_Project\AE_Masters_Project\Nastran\!FinalModels\CompoundTensionStrip3\CQ8\CompoundTensionStrip_CQ8_10.modfem
$   Date       : Mon Nov 24 16:03:13 2025
$   Output To  : C:\Documents\Grad_School\!AE_Masters_Project\AE_Masters_Project\Nastran\!FinalModels\CompoundTensionStrip3\CQ8\
$ ***************************************************************************
$
PARAM,PRGPST,NO
PARAM,POST,0
PARAM,OGEOM,NO
PARAM,AUTOSPC,YES
PARAM,K6ROT,100.
PARAM,GRDPNT,0
CORD2C         1       0      0.      0.      0.      0.      0.      1.+FEMAPC1
+FEMAPC1      1.      0.      1.        
CORD2S         2       0      0.      0.      0.      0.      0.      1.+FEMAPC2
+FEMAPC2      1.      0.      1.        
$ Femap Load Set 1 : Untitled
FORCE          1      51       0      1.    125.      0.      0.
FORCE          1     159       0      1.    125.      0.      0.
FORCE          1     160       0      1.    250.      0.      0.
FORCE          1     161       0      1.    250.      0.      0.
FORCE          1     162       0      1.    250.      0.      0.
$ Femap Constraint Set 1 : Untitled
SPC1           1       1      96
SPC1           1       1      97
SPC1           1       1      98
SPC1           1       1      99
SPC1           1       1     100
SPC1           1       1     101
SPC1           1       1     102
SPC1           1       1     103
SPC1           1       1     104
SPC1           1       1     105
SPC1           1       1     106
SPC1           1       1     107
SPC1           1  123456     108
SPC1           1       2     109
SPC1           1       2     110
SPC1           1       2     111
SPC1           1       2     112
SPC1           1       2     113
SPC1           1       2     114
SPC1           1       2     115
$ ... 44 like lines cut
$ Femap Property 1 : MEMBRANE Property
PSHELL         1       1     .25                                      0.
$ Femap Material 1 : 2024-T351 Al Plate: t = 0.25 to 0.5 inches
MAT1           1  1.07+7             .332.5906-4 1.255-5     70.        +       
+         42000.  40000.  38000.
MAT4           1.0016435  83.0762.5906-4                        
GRID           1       05.992988.3749992      0.       0
GRID           5       05.992988.7499985      0.       0
GRID           9       05.742989 .999998      0.       0
GRID          13       05.367989 .999998      0.       0
GRID          26       06.492987.3749993      0.       0
GRID          30       06.492987.7499985      0.       0
GRID          46       05.3679891.392914      0.       0
GRID          51       09.592981.7499985      0.       0
GRID          52       09.399231.7499985      0.       0
GRID          53       09.205482.7499985      0.       0
GRID          54       09.011732.7499985      0.       0
GRID          55       08.817982.7499985      0.       0
GRID          56       08.624233.7499985      0.       0
GRID          57       08.430483.7499985      0.       0
GRID          58       08.236734.7499985      0.       0
GRID          59       08.042984.7499985      0.       0
GRID          60       07.849234.7499985      0.       0
GRID          61       07.655485.7499985      0.       0
GRID          62       07.461735.7499985      0.       0
GRID          63       07.267985.7499985      0.       0
$ ... 883 like lines cut
CQUAD4      1545       1     969       9    1471    1487                
CQUAD4      1546       1     970     969    1487    1485                
CQUAD4      1547       1    1485    1487    1471    1472                
CQUAD4      1548       1     971     970    1485    1486                
CQUAD4      1549       1     972     971    1486    1484                
CQUAD4      1550       1    1486    1485    1489    1488                
CQUAD4      1551       1    1488    1489    1473    1483                
CQUAD4      1552       1    1484    1486    1488    1490                
CQUAD4      1553       1    1489    1485    1472    1473                
CQUAD4      1554       1      13     972    1484    1470                
CQUAD4      1555       1    1470    1484    1490    1469                
CQUAD4      1556       1    1483    1473    1474    1468                
CTRIA3      1557       1    1469    1483    1468                        
CTRIA3      1558       1    1467    1474      46                        
CQUAD4      1559       1    1490    1488    1483    1469                
CTRIA3      1560       1    1468    1474    1467                        
CQUAD4      1561       1    1784    1792     977     976                
CQUAD4      1562       1    1792    1790     978     977                
CQUAD4      1563       1    1785    1790    1792    1784                
CQUAD4      1564       1    1784     976     975    1783                
CQUAD4      1565       1    1790    1791     979     978                
CQUAD4      1566       1    1791    1789     980     979                
CQUAD4      1567       1    1793    1788    1789    1791                
CQUAD4      1568       1    1771    1772    1788    1793                
CQUAD4      1569       1    1771    1793    1791    1790                
CQUAD4      1570       1    1770    1771    1790    1785                
CQUAD4      1571       1    1789    1787     981     980                
CQUAD4      1572       1    1788    1786    1787    1789                
CQUAD4      1573       1    1787    1794       1     981                
CQUAD4      1574       1    1794    1782    1026       1                
CQUAD4      1575       1    1783     975     974    1781                
CQUAD4      1576       1    1777    1783    1781    1776                
CQUAD4      1577       1    1778    1784    1783    1777                
CQUAD4      1578       1    1779    1785    1784    1778                
CQUAD4      1579       1    1769    1770    1785    1779                
CQUAD4      1580       1    1782    1950    1027    1026                
$ ... 556 like lines cut
CQUAD8      2137       1     981       1     956    1999    2038    2035+       
+           2036    2037                                                
CQUAD8      2138       1    1999     956     957    2000    2036    2039+       
+           2040    2041                                                
CQUAD8      2139       1    2000     957     958    2001    2040    2042+       
+           2043    2044                                                
CQUAD8      2140       1    2001     958     959    2002    2043    2045+       
+           2046    2047                                                
CQUAD8      2141       1    2002     959       5     960    2046    2048+       
+           2049    2050                                                
CQUAD8      2142       1     980     981    1999    2003    2053    2037+       
+           2051    2052                                                
CQUAD8      2143       1    2003    1999    2000    2004    2051    2041+       
+           2054    2055                                                
CQUAD8      2144       1    2004    2000    2001    2005    2054    2044+       
+           2056    2057                                                
CQUAD8      2145       1    2005    2001    2002    2006    2056    2047+       
+           2058    2059                                                
CQUAD8      2146       1    2006    2002     960     961    2058    2050+       
+           2060    2061                                                
CQUAD8      2147       1     979     980    2003    2007    2064    2052+       
+           2062    2063                                                
CQUAD8      2148       1    2007    2003    2004    2008    2062    2055+       
+           2065    2066                                                
CQUAD8      2149       1    2008    2004    2005    2009    2065    2057+       
+           2067    2068                                                
CQUAD8      2150       1    2009    2005    2006    2010    2067    2059+       
+           2069    2070                                                
CQUAD8      2151       1    2010    2006     961     962    2069    2061+       
+           2071    2072                                                
CQUAD8      2152       1     978     979    2007    2011    2075    2063+       
+           2073    2074                                                
CQUAD8      2153       1    2011    2007    2008    2012    2073    2066+       
+           2076    2077                                                
CQUAD8      2154       1    2012    2008    2009    2013    2076    2068+       
+           2078    2079                                                
CQUAD8      2155       1    2013    2009    2010    2014    2078    2070+       
+           2080    2081                                                
CQUAD8      2156       1    2014    2010     962     963    2080    2072+       
+           2082    2083                                                
$ ... 110 like lines cut
ENDDATA 9448c07a
