INIT MASTER(S)
NASTRAN SYSTEM(442)=-1,SYSTEM(319)=1
ID FFinalM,FEMAP
SOL SESTATIC
CEND
  TITLE = Simcenter Nastran Static Analysis Set
  ECHO = NONE
  DISPLACEMENT(PLOT) = ALL
  SPCFORCE(PLOT) = ALL
  OLOAD(PLOT) = ALL
  FORCE(PLOT,CORNER) = ALL
  STRESS(PLOT,CORNER) = ALL
  SPC = 1
  LOAD = 1
BEGIN BULK
$ ***************************************************************************
$   Written by : Femap
$   Version    : 2412.0
$   Translator : Simcenter Nastran
$   From Model : C:\Documents\Grad_School\!AE_Masters_Project\AE_Masters_Project\Nastran\!FinalModels\CompoundTensionStrip\AVFEM\CompoundTensionStripAVFEM.modfem
$   Date       : Wed Nov 19 23:20:59 2025
$   Output To  : C:\Documents\Grad_School\!AE_Masters_Project\AE_Masters_Project\Nastran\!FinalModels\CompoundTensionStrip\AVFEM\
$ ***************************************************************************
$
PARAM,PRGPST,NO
PARAM,POST,0
PARAM,OGEOM,NO
PARAM,AUTOSPC,YES
PARAM,K6ROT,100.
PARAM,GRDPNT,0
CORD2C         1       0      0.      0.      0.      0.      0.      1.+FEMAPC1
+FEMAPC1      1.      0.      1.        
CORD2S         2       0      0.      0.      0.      0.      0.      1.+FEMAPC2
+FEMAPC2      1.      0.      1.        
$ Femap Coordinate System 3 : Rectangular Coordinate System
CORD2R         3       0  7.1375    .525      0.  7.1375    .525     -1.+       
+       8.113687.3080695      0.        
$ Femap Load Set 1 : Untitled
FORCE          1      87       0      1.    250.      0.      0.
FORCE          1     109       0      1.    250.      0.      0.
FORCE          1     110       0      1.    500.      0.      0.
$ Femap Constraint Set 1 : Untitled
SPC1           1       2      87
SPC1           1       2      88
SPC1           1       2      89
SPC1           1       2      90
SPC1           1       2      91
SPC1           1       2      92
SPC1           1       2      93
SPC1           1       2      94
SPC1           1       2      95
SPC1           1       2      96
SPC1           1       2      97
SPC1           1  123456     185
SPC1           1       2     186
SPC1           1       2     187
SPC1           1       2     188
SPC1           1       2     189
SPC1           1       2     190
SPC1           1       2     191
SPC1           1       2     192
SPC1           1       2     193
$ ... 17 like lines cut
$ Femap Property 1 : PLATE Property
PSHELL         1       1     .25       1               1              0.
$ Femap Material 1 : 2024-T351 Al Plate: t = 0.25 to 0.5 inches
MAT1           1  1.07+7             .332.5906-4 1.255-5     70.        +       
+         42000.  40000.  38000.
MAT4           1.0016435  83.0762.5906-4                        
GRID          87       0      9.      0.      0.       0
GRID          88       08.849143      0.      0.       0
GRID          89       08.698286      0.      0.       0
GRID          90       08.547429      0.      0.       0
GRID          91       08.396571      0.      0.       0
GRID          92       08.245714      0.      0.       0
GRID          93       08.094857      0.      0.       0
GRID          94       0   7.944      0.      0.       0
GRID          95       0   7.812      0.      0.       0
GRID          96       0    7.68      0.      0.       0
GRID          97       0     7.5      0.      0.       0
GRID          98       0     7.5   .1375      0.       0
GRID          99       0     7.5     .25      0.       0
GRID         100       0    7.68     .25      0.       0
GRID         101       0   7.812     .25      0.       0
GRID         102       0   7.944     .25      0.       0
GRID         103       08.094857     .25      0.       0
GRID         104       08.245714     .25      0.       0
GRID         105       08.396571     .25      0.       0
GRID         106       08.547429     .25      0.       0
$ ... 107 like lines cut
CQUAD4        56       1      87      88     111     110                
CQUAD4        57       1      88      89     112     111                
CQUAD4        58       1      89      90     113     112                
CQUAD4        59       1      90      91     114     113                
CQUAD4        60       1      91      92     115     114                
CQUAD4        61       1      92      93     116     115                
CQUAD4        62       1      93      94     117     116                
CQUAD4        63       1      94      95     118     117                
CQUAD4        64       1      95      96     119     118                
CQUAD4        65       1      96      97      98     119                
CQUAD4        66       1     110     111     108     109                
CQUAD4        67       1     111     112     107     108                
CQUAD4        68       1     112     113     106     107                
CQUAD4        69       1     113     114     105     106                
CQUAD4        70       1     114     115     104     105                
CQUAD4        71       1     115     116     103     104                
CQUAD4        72       1     116     117     102     103                
CQUAD4        73       1     117     118     101     102                
CQUAD4        74       1     118     119     100     101                
CQUAD4        75       1     119      98      99     100                
$ ... 49 like lines cut
CTRIA3       172       1     244     243     263                        
CQUAD4       173       1     263     253     264     265                
CQUAD4       174       1     253     254     255     264                
CQUAD4       175       1     258     246     245     265                
CQUAD4       176       1     265     264     257     258                
CQUAD4       177       1     264     255     256     257                
CQUAD4       178       1     279      98      99     281                
CQUAD4       179       1     279     281     280     278                
CQUAD4       180       1      99     266     280     281                
CQUAD4       181       1     280     276     277     278                
CQUAD4       182       1     275     276     280     282                
CQUAD4       183       1     275     282     267     268                
CQUAD4       184       1     280     266     267     282                
CQUAD4       185       1     278     277     272     273                
CQUAD4       186       1     273     274     279     278                
CQUAD4       187       1     274      97      98     279                
CQUAD4       188       1     283     276     275     284                
CQUAD4       189       1     283     284     254     255                
CQUAD4       190       1     275     268     254     284                
CQUAD4       191       1     277     276     283     285                
CQUAD4       192       1     277     285     256     272                
CQUAD4       193       1     283     255     256     285                
ENDDATA fecac988
