INIT MASTER(S)
NASTRAN SYSTEM(442)=-1,SYSTEM(319)=1
ID FFinalM,FEMAP
SOL SESTATIC
CEND
  TITLE = Simcenter Nastran Static Analysis Set
  ECHO = NONE
  DISPLACEMENT(PLOT) = ALL
  SPCFORCE(PLOT) = ALL
  OLOAD(PLOT) = ALL
  FORCE(PLOT,CORNER) = ALL
  STRESS(PLOT,CORNER) = ALL
  SPC = 1
  LOAD = 1
BEGIN BULK
$ ***************************************************************************
$   Written by : Femap
$   Version    : 2412.0
$   Translator : Simcenter Nastran
$   From Model : C:\Documents\Grad_School\!AE_Masters_Project\AE_Masters_Project\Nastran\!FinalModels\CompoundTensionStrip\AVFEM\CompoundTensionStripAVFEM.modfem
$   Date       : Wed Nov 19 23:18:21 2025
$   Output To  : C:\Documents\Grad_School\!AE_Masters_Project\AE_Masters_Project\Nastran\!FinalModels\CompoundTensionStrip\AVFEM\
$ ***************************************************************************
$
PARAM,PRGPST,NO
PARAM,POST,0
PARAM,OGEOM,NO
PARAM,AUTOSPC,YES
PARAM,K6ROT,100.
PARAM,GRDPNT,0
CORD2C         1       0      0.      0.      0.      0.      0.      1.+FEMAPC1
+FEMAPC1      1.      0.      1.        
CORD2S         2       0      0.      0.      0.      0.      0.      1.+FEMAPC2
+FEMAPC2      1.      0.      1.        
$ Femap Coordinate System 3 : Rectangular Coordinate System
CORD2R         3       0  7.1375    .525      0.  7.1375    .525     -1.+       
+       8.113687.3080695      0.        
$ Femap Load Set 1 : Untitled
FORCE          1      40       0      1.    250.      0.      0.
FORCE          1      62       0      1.    250.      0.      0.
FORCE          1      63       0      1.    500.      0.      0.
$ Femap Constraint Set 1 : Untitled
SPC1           1  123456       1
SPC1           1       2       2
SPC1           1       2       3
SPC1           1       2       4
SPC1           1       2       5
SPC1           1       2       6
SPC1           1       2       7
SPC1           1       2       8
SPC1           1       2       9
SPC1           1       2      10
SPC1           1       2      11
SPC1           1  123456      23
SPC1           1  123456      24
SPC1           1       2      37
SPC1           1       2      38
SPC1           1       2      40
SPC1           1       2      41
SPC1           1       2      42
SPC1           1       2      43
SPC1           1       2      44
$ ... 8 like lines cut
$ Femap Property 1 : PLATE Property
PSHELL         1       1     .25       1               1              0.
$ Femap Material 1 : 2024-T351 Al Plate: t = 0.25 to 0.5 inches
MAT1           1  1.07+7             .332.5906-4 1.255-5     70.        +       
+         42000.  40000.  38000.
MAT4           1.0016435  83.0762.5906-4                        
GRID           1       0      0.      0.      0.       0
GRID           2       0      .5      0.      0.       0
GRID           3       0      1.      0.      0.       0
GRID           4       0     1.5      0.      0.       0
GRID           5       0      2.      0.      0.       0
GRID           6       0     2.5      0.      0.       0
GRID           7       0      3.      0.      0.       0
GRID           8       0     3.5      0.      0.       0
GRID           9       0      4.      0.      0.       0
GRID          10       0     4.5      0.      0.       0
GRID          11       0      5.      0.      0.       0
GRID          12       0      5.      .5      0.       0
GRID          13       0      5.      1.      0.       0
GRID          14       0     4.5      1.      0.       0
GRID          15       0      4.      1.      0.       0
GRID          16       0     3.5      1.      0.       0
GRID          17       0      3.      1.      0.       0
GRID          18       0     2.5      1.      0.       0
GRID          19       0      2.      1.      0.       0
GRID          20       0     1.5      1.      0.       0
$ ... 80 like lines cut
PLOTEL4        1       1       2      25      24                        
PLOTEL4        2       2       3      26      25                        
PLOTEL4        3       3       4      27      26                        
PLOTEL4        4       4       5      28      27                        
PLOTEL4        5       5       6      29      28                        
PLOTEL4        6       6       7      30      29                        
PLOTEL4        7       7       8      31      30                        
PLOTEL4        8       8       9      32      31                        
PLOTEL4        9       9      10      33      32                        
PLOTEL4       10      10      11      12      33                        
PLOTEL4       11      24      25      22      23                        
PLOTEL4       12      25      26      21      22                        
PLOTEL4       13      26      27      20      21                        
PLOTEL4       14      27      28      19      20                        
PLOTEL4       15      28      29      18      19                        
PLOTEL4       16      29      30      17      18                        
PLOTEL4       17      30      31      16      17                        
PLOTEL4       18      31      32      15      16                        
PLOTEL4       19      32      33      14      15                        
PLOTEL4       20      33      12      13      14                        
$ ... 49 like lines cut
ENDDATA 21d8e31d
