INIT MASTER(S)
NASTRAN SYSTEM(442)=-1,SYSTEM(319)=1
ID FEMAP,FEMAP
SOL SESTATIC
CEND
  TITLE = Simcenter Nastran Static Analysis Set
  ECHO = NONE
  DISPLACEMENT(PLOT) = ALL
  SPCFORCE(PLOT) = ALL
  OLOAD(PLOT) = ALL
  FORCE(PLOT,CORNER) = ALL
  STRESS(PLOT,CORNER) = ALL
  SPC = 1
  LOAD = 1
BEGIN BULK
$ ***************************************************************************
$   Written by : Femap
$   Version    : 2412.0
$   Translator : Simcenter Nastran
$   From Model : 
$   Date       : Fri Dec  5 19:57:41 2025
$   Output To  : C:\Users\chadm\AppData\Local\Temp\
$ ***************************************************************************
$
PARAM,PRGPST,NO
PARAM,POST,0
PARAM,OGEOM,NO
PARAM,AUTOSPC,YES
PARAM,K6ROT,100.
PARAM,GRDPNT,0
CORD2C         1       0      0.      0.      0.      0.      0.      1.+FEMAPC1
+FEMAPC1      1.      0.      1.        
CORD2S         2       0      0.      0.      0.      0.      0.      1.+FEMAPC2
+FEMAPC2      1.      0.      1.        
$ Femap Load Set 1 : Untitled
FORCE          1     102       0      1.   1250.      0.      0.
FORCE          1     103       0      1.   2500.      0.      0.
FORCE          1     104       0      1.   2500.      0.      0.
FORCE          1     105       0      1.   2500.      0.      0.
FORCE          1     106       0      1.   2500.      0.      0.
FORCE          1     107       0      1.   2500.      0.      0.
FORCE          1     108       0      1.   2500.      0.      0.
FORCE          1     109       0      1.   2500.      0.      0.
FORCE          1     110       0      1.   2500.      0.      0.
FORCE          1     111       0      1.   2500.      0.      0.
FORCE          1     112       0      1.   1250.      0.      0.
$ Femap Constraint Set 1 : Untitled
SPC1           1  123456      69
SPC1           1       1      70
SPC1           1       1      71
SPC1           1       1      72
SPC1           1       1      73
SPC1           1       1      74
SPC1           1       1      75
SPC1           1       1      76
SPC1           1       1      77
SPC1           1       1      78
SPC1           1       1      79
$ Femap Property 1 : MEMBRANE Property
PSHELL         1       1     .25                                      0.
$ Femap Material 1 : 2024-T351 Al Plate: t = 0.25 to 0.5 inches
MAT1           1  1.07+7             .332.5906-4 1.255-5     70.        +       
+         42000.  40000.  38000.
MAT4           1.0016435  83.0762.5906-4                        
GRID           1       0      2.      1.      0.       0
GRID           2       0     1.8      1.      0.       0
GRID           3       0     1.6      1.      0.       0
GRID           4       0     1.4      1.      0.       0
GRID           5       0     1.2      1.      0.       0
GRID           6       0      1.      1.      0.       0
GRID           7       0      .8      1.      0.       0
GRID           8       0      .6      1.      0.       0
GRID           9       0      .4      1.      0.       0
GRID          10       0      .2      1.      0.       0
GRID          11       0      0.      1.      0.       0
GRID          12       0      0.      .8      0.       0
GRID          13       0      0.      .6      0.       0
GRID          14       0      0.      .4      0.       0
GRID          15       0      0.      .2      0.       0
GRID          16       0      0.      0.      0.       0
GRID          17       0      .2      0.      0.       0
GRID          18       0      .4      0.      0.       0
GRID          19       0      .6      0.      0.       0
GRID          20       0      .8      0.      0.       0
$ ... 260 like lines cut
CQUAD4         1       1      31      30       1       2                
CQUAD4         2       1      32      31       2       3                
CQUAD4         3       1      33      32       3       4                
CQUAD4         4       1      34      33       4       5                
CQUAD4         5       1      35      34       5       6                
CQUAD4         6       1      36      35       6       7                
CQUAD4         7       1      37      36       7       8                
CQUAD4         8       1      38      37       8       9                
CQUAD4         9       1      39      38       9      10                
CQUAD4        10       1      12      39      10      11                
CQUAD4        11       1      40      29      30      31                
CQUAD4        12       1      41      40      31      32                
CQUAD4        13       1      42      41      32      33                
CQUAD4        14       1      43      42      33      34                
CQUAD4        15       1      44      43      34      35                
CQUAD4        16       1      45      44      35      36                
CQUAD4        17       1      46      45      36      37                
CQUAD4        18       1      47      46      37      38                
CQUAD4        19       1      48      47      38      39                
CQUAD4        20       1      13      48      39      12                
$ ... 70 like lines cut
CQUAD8        91       1      82     152     151      81     189     190+       
+            191     188                                                
CQUAD8        92       1      83     153     152      82     193     194+       
+            189     192                                                
CQUAD8        93       1      84     154     153      83     196     197+       
+            193     195                                                
CQUAD8        94       1      85     155     154      84     199     200+       
+            196     198                                                
CQUAD8        95       1      11      10     155      85     202     203+       
+            199     201                                                
CQUAD8        96       1     152     156     150     151     204     205+       
+            206     190                                                
CQUAD8        97       1     153     157     156     152     207     208+       
+            204     194                                                
CQUAD8        98       1     154     158     157     153     209     210+       
+            207     197                                                
CQUAD8        99       1     155     159     158     154     211     212+       
+            209     200                                                
CQUAD8       100       1      10       9     159     155     213     214+       
+            211     203                                                
CQUAD8       101       1     156     160     149     150     215     216+       
+            217     205                                                
CQUAD8       102       1     157     161     160     156     218     219+       
+            215     208                                                
CQUAD8       103       1     158     162     161     157     220     221+       
+            218     210                                                
CQUAD8       104       1     159     163     162     158     222     223+       
+            220     212                                                
CQUAD8       105       1       9       8     163     159     224     225+       
+            222     214                                                
CQUAD8       106       1     160     164     148     149     226     227+       
+            228     216                                                
CQUAD8       107       1     161     165     164     160     229     230+       
+            226     219                                                
CQUAD8       108       1     162     166     165     161     231     232+       
+            229     221                                                
CQUAD8       109       1     163     167     166     162     233     234+       
+            231     223                                                
CQUAD8       110       1       8       7     167     163     235     236+       
+            233     225                                                
$ ... 60 like lines cut
ENDDATA e4b7454b
