INIT MASTER(S)
NASTRAN SYSTEM(442)=-1,SYSTEM(319)=1
ID FEMAP,FEMAP
SOL SESTATIC
CEND
  TITLE = Simcenter Nastran Static Analysis Set
  ECHO = NONE
  DISPLACEMENT(PLOT) = ALL
  SPCFORCE(PLOT) = ALL
  OLOAD(PLOT) = ALL
  FORCE(PLOT,CORNER) = ALL
  STRESS(PLOT,CORNER) = ALL
  SPC = 1
  LOAD = 1
BEGIN BULK
$ ***************************************************************************
$   Written by : Femap
$   Version    : 2412.0
$   Translator : Simcenter Nastran
$   From Model : 
$   Date       : Fri Dec  5 19:51:39 2025
$   Output To  : C:\Users\chadm\AppData\Local\Temp\
$ ***************************************************************************
$
PARAM,PRGPST,NO
PARAM,POST,0
PARAM,OGEOM,NO
PARAM,AUTOSPC,YES
PARAM,K6ROT,100.
PARAM,GRDPNT,0
CORD2C         1       0      0.      0.      0.      0.      0.      1.+FEMAPC1
+FEMAPC1      1.      0.      1.        
CORD2S         2       0      0.      0.      0.      0.      0.      1.+FEMAPC2
+FEMAPC2      1.      0.      1.        
$ Femap Load Set 1 : Untitled
FORCE          1       1       0      1.4166.667      0.      0.
FORCE          1      50       0      1.2083.333      0.      0.
FORCE          1      51       0      1.2083.333      0.      0.
FORCE          1      52       0      1.2083.333      0.      0.
FORCE          1      53       0      1.1041.667      0.      0.
FORCE          1     150       0      1.4166.667      0.      0.
FORCE          1     153       0      1.4166.667      0.      0.
FORCE          1     155       0      1.4166.667      0.      0.
FORCE          1     157       0      1.4166.667      0.      0.
FORCE          1     169       0      1.   3125.      0.      0.
FORCE          1     170       0      1.   6250.      0.      0.
FORCE          1     171       0      1.   6250.      0.      0.
FORCE          1     172       0      1.   6250.      0.      0.
$ Femap Constraint Set 1 : Untitled
SPC1           1       1       9
SPC1           1       1      46
SPC1           1       1      47
SPC1           1       1      48
SPC1           1       1      49
SPC1           1       1      82
SPC1           1       1      86
SPC1           1       1      89
SPC1           1       1      92
SPC1           1       1     158
SPC1           1       1     159
SPC1           1       1     160
SPC1           1  123456     161
$ Femap Property 1 : MEMBRANE Property
PSHELL         1       1     .25                                      0.
$ Femap Material 1 : 2024-T351 Al Plate: t = 0.25 to 0.5 inches
MAT1           1  1.07+7             .332.5906-4 1.255-5     70.        +       
+         42000.  40000.  38000.
MAT4           1.0016435  83.0762.5906-4                        
GRID           1       0      2.      1.      0.       0
GRID           2       0    1.75      1.      0.       0
GRID           3       0     1.5      1.      0.       0
GRID           4       0    1.25      1.      0.       0
GRID           5       0      1.      1.      0.       0
GRID           6       0     .75      1.      0.       0
GRID           7       0      .5      1.      0.       0
GRID           8       0     .25      1.      0.       0
GRID           9       0      0.      1.      0.       0
GRID          46       0      0.      2.      0.       0
GRID          47       0      0.    1.75      0.       0
GRID          48       0      0.     1.5      0.       0
GRID          49       0      0.    1.25      0.       0
GRID          50       0      2.    1.25      0.       0
GRID          51       0      2.     1.5      0.       0
GRID          52       0      2.    1.75      0.       0
GRID          53       0      2.      2.      0.       0
GRID          54       0    1.75      2.      0.       0
GRID          55       0     1.5      2.      0.       0
GRID          56       0    1.25      2.      0.       0
$ ... 137 like lines cut
CQUAD8        33       1      47      61      60      46      83      84+       
+             85      82                                                
CQUAD8        34       1      48      62      61      47      87      88+       
+             83      86                                                
CQUAD8        35       1      49      63      62      48      90      91+       
+             87      89                                                
CQUAD8        36       1       9       8      63      49      93      94+       
+             90      92                                                
CQUAD8        37       1      61      64      59      60      95      96+       
+             97      84                                                
CQUAD8        38       1      62      65      64      61      98      99+       
+             95      88                                                
CQUAD8        39       1      63      66      65      62     100     101+       
+             98      91                                                
CQUAD8        40       1       8       7      66      63     102     103+       
+            100      94                                                
CQUAD8        41       1      64      67      58      59     104     105+       
+            106      96                                                
CQUAD8        42       1      65      68      67      64     107     108+       
+            104      99                                                
CQUAD8        43       1      66      69      68      65     109     110+       
+            107     101                                                
CQUAD8        44       1       7       6      69      66     111     112+       
+            109     103                                                
CQUAD8        45       1      67      70      57      58     113     114+       
+            115     105                                                
CQUAD8        46       1      68      71      70      67     116     117+       
+            113     108                                                
CQUAD8        47       1      69      72      71      68     118     119+       
+            116     110                                                
CQUAD8        48       1       6       5      72      69     120     121+       
+            118     112                                                
CQUAD8        49       1      70      73      56      57     122     123+       
+            124     114                                                
CQUAD8        50       1      71      74      73      70     125     126+       
+            122     117                                                
CQUAD8        51       1      72      75      74      71     127     128+       
+            125     119                                                
CQUAD8        52       1       5       4      75      72     129     130+       
+            127     121                                                
$ ... 24 like lines cut
CQUAD4        65       1     173     172       1       2                
CQUAD4        66       1     174     173       2       3                
CQUAD4        67       1     175     174       3       4                
CQUAD4        68       1     176     175       4       5                
CQUAD4        69       1     177     176       5       6                
CQUAD4        70       1     178     177       6       7                
CQUAD4        71       1     179     178       7       8                
CQUAD4        72       1     158     179       8       9                
CQUAD4        73       1     180     171     172     173                
CQUAD4        74       1     181     180     173     174                
CQUAD4        75       1     182     181     174     175                
CQUAD4        76       1     183     182     175     176                
CQUAD4        77       1     184     183     176     177                
CQUAD4        78       1     185     184     177     178                
CQUAD4        79       1     186     185     178     179                
CQUAD4        80       1     159     186     179     158                
CQUAD4        81       1     187     170     171     180                
CQUAD4        82       1     188     187     180     181                
CQUAD4        83       1     189     188     181     182                
CQUAD4        84       1     190     189     182     183                
$ ... 12 like lines cut
ENDDATA 08e6124f
