INIT MASTER(S)
NASTRAN SYSTEM(442)=-1,SYSTEM(319)=1
ID FEMAP,FEMAP
SOL SESTATIC
CEND
  TITLE = Simcenter Nastran Static Analysis Set
  ECHO = NONE
  DISPLACEMENT(PLOT) = ALL
  SPCFORCE(PLOT) = ALL
  OLOAD(PLOT) = ALL
  FORCE(PLOT,CORNER) = ALL
  STRESS(PLOT,CORNER) = ALL
  SPC = 1
  LOAD = 1
BEGIN BULK
$ ***************************************************************************
$   Written by : Femap
$   Version    : 2412.0
$   Translator : Simcenter Nastran
$   From Model : 
$   Date       : Fri Dec  5 19:44:40 2025
$   Output To  : C:\Users\chadm\AppData\Local\Temp\
$ ***************************************************************************
$
PARAM,PRGPST,NO
PARAM,POST,-1
PARAM,OGEOM,NO
PARAM,AUTOSPC,YES
PARAM,K6ROT,100.
PARAM,GRDPNT,0
CORD2C         1       0      0.      0.      0.      0.      0.      1.+FEMAPC1
+FEMAPC1      1.      0.      1.        
CORD2S         2       0      0.      0.      0.      0.      0.      1.+FEMAPC2
+FEMAPC2      1.      0.      1.        
$ Femap Load Set 1 : Untitled
FORCE          1      49       0      1.    625.      0.      0.
FORCE          1      50       0      1.   1250.      0.      0.
FORCE          1      51       0      1.   1250.      0.      0.
FORCE          1      52       0      1.   1250.      0.      0.
FORCE          1      53       0      1.   1250.      0.      0.
FORCE          1      54       0      1.   1250.      0.      0.
FORCE          1      55       0      1.   1250.      0.      0.
FORCE          1      56       0      1.   1250.      0.      0.
FORCE          1      57       0      1.    625.      0.      0.
$ Femap Constraint Set 1 : Untitled
SPC1           1  123456       9
SPC1           1       1      86
SPC1           1       1      87
SPC1           1       1      88
SPC1           1       1      89
SPC1           1       1     122
SPC1           1       1     126
SPC1           1       1     129
SPC1           1       1     132
SPC1           1       1     198
SPC1           1       1     199
SPC1           1       1     200
SPC1           1       1     201
$ Femap Property 1 : PLATE Property
PSHELL         1       1     .25       1               1              0.
$ Femap Material 1 : 2024-T351 Al Plate: t = 0.25 to 0.5 inches
MAT1           1  1.07+7             .332.5906-4 1.255-5     70.        +       
+         42000.  40000.  38000.
MAT4           1.0016435  83.0762.5906-4                        
GRID           1       0      2.      1.      0.       0
GRID           2       0    1.75      1.      0.       0
GRID           3       0     1.5      1.      0.       0
GRID           4       0    1.25      1.      0.       0
GRID           5       0      1.      1.      0.       0
GRID           6       0     .75      1.      0.       0
GRID           7       0      .5      1.      0.       0
GRID           8       0     .25      1.      0.       0
GRID           9       0      0.      1.      0.       0
GRID          21       0      2.      0.      0.       0
GRID          22       0      2.     .25      0.       0
GRID          23       0      2.      .5      0.       0
GRID          24       0      2.     .75      0.       0
GRID          46       0    2.25      0.      0.       0
GRID          47       0     2.5      0.      0.       0
GRID          48       0    2.75      0.      0.       0
GRID          49       0      3.      0.      0.       0
GRID          50       0      3.     .25      0.       0
GRID          51       0      3.      .5      0.       0
GRID          52       0      3.     .75      0.       0
$ ... 173 like lines cut
CQUAD4        33       1      21      46      65      22                
CQUAD4        34       1      46      47      66      65                
CQUAD4        35       1      47      48      67      66                
CQUAD4        36       1      48      49      50      67                
CQUAD4        37       1      22      65      68      23                
CQUAD4        38       1      65      66      69      68                
CQUAD4        39       1      66      67      70      69                
CQUAD4        40       1      67      50      51      70                
CQUAD4        41       1      23      68      71      24                
CQUAD4        42       1      68      69      72      71                
CQUAD4        43       1      69      70      73      72                
CQUAD4        44       1      70      51      52      73                
CQUAD4        45       1      24      71      74       1                
CQUAD4        46       1      71      72      75      74                
CQUAD4        47       1      72      73      76      75                
CQUAD4        48       1      73      52      53      76                
CQUAD4        49       1       1      74      77      64                
CQUAD4        50       1      74      75      78      77                
CQUAD4        51       1      75      76      79      78                
CQUAD4        52       1      76      53      54      79                
$ ... 12 like lines cut
CQUAD8        65       1      87     101     100      86     123     124+       
+            125     122                                                
CQUAD8        66       1      88     102     101      87     127     128+       
+            123     126                                                
CQUAD8        67       1      89     103     102      88     130     131+       
+            127     129                                                
CQUAD8        68       1       9       8     103      89     133     134+       
+            130     132                                                
CQUAD8        69       1     101     104      99     100     135     136+       
+            137     124                                                
CQUAD8        70       1     102     105     104     101     138     139+       
+            135     128                                                
CQUAD8        71       1     103     106     105     102     140     141+       
+            138     131                                                
CQUAD8        72       1       8       7     106     103     142     143+       
+            140     134                                                
CQUAD8        73       1     104     107      98      99     144     145+       
+            146     136                                                
CQUAD8        74       1     105     108     107     104     147     148+       
+            144     139                                                
CQUAD8        75       1     106     109     108     105     149     150+       
+            147     141                                                
CQUAD8        76       1       7       6     109     106     151     152+       
+            149     143                                                
CQUAD8        77       1     107     110      97      98     153     154+       
+            155     145                                                
CQUAD8        78       1     108     111     110     107     156     157+       
+            153     148                                                
CQUAD8        79       1     109     112     111     108     158     159+       
+            156     150                                                
CQUAD8        80       1       6       5     112     109     160     161+       
+            158     152                                                
CQUAD8        81       1     110     113      96      97     162     163+       
+            164     154                                                
CQUAD8        82       1     111     114     113     110     165     166+       
+            162     157                                                
CQUAD8        83       1     112     115     114     111     167     168+       
+            165     159                                                
CQUAD8        84       1       5       4     115     112     169     170+       
+            167     161                                                
$ ... 24 like lines cut
CQUAD4        97       1     209      24       1       2                
CQUAD4        98       1     210     209       2       3                
CQUAD4        99       1     211     210       3       4                
CQUAD4       100       1     212     211       4       5                
CQUAD4       101       1     213     212       5       6                
CQUAD4       102       1     214     213       6       7                
CQUAD4       103       1     215     214       7       8                
CQUAD4       104       1     198     215       8       9                
CQUAD4       105       1     216      23      24     209                
CQUAD4       106       1     217     216     209     210                
CQUAD4       107       1     218     217     210     211                
CQUAD4       108       1     219     218     211     212                
CQUAD4       109       1     220     219     212     213                
CQUAD4       110       1     221     220     213     214                
CQUAD4       111       1     222     221     214     215                
CQUAD4       112       1     199     222     215     198                
CQUAD4       113       1     223      22      23     216                
CQUAD4       114       1     224     223     216     217                
CQUAD4       115       1     225     224     217     218                
CQUAD4       116       1     226     225     218     219                
$ ... 12 like lines cut
ENDDATA cf3ef2e3
