INIT MASTER(S)
NASTRAN SYSTEM(442)=-1,SYSTEM(319)=1
ID FFinalM,FEMAP
SOL SESTATIC
CEND
  TITLE = Simcenter Nastran Static Analysis Set
  ECHO = NONE
  DISPLACEMENT(PLOT) = ALL
  SPCFORCE(PLOT) = ALL
  OLOAD(PLOT) = ALL
  FORCE(PLOT,CORNER) = ALL
  STRESS(PLOT,CORNER) = ALL
  SPC = 1
  LOAD = 1
BEGIN BULK
$ ***************************************************************************
$   Written by : Femap
$   Version    : 2412.0
$   Translator : Simcenter Nastran
$   From Model : C:\Documents\Grad_School\!AE_Masters_Project\AE_Masters_Project\Nastran\!FinalModels\CompoundTensionStrip2\PyDFEM\CQ8\CompoundTensionStripCQ8_8.modfem
$   Date       : Sun Nov 23 17:10:29 2025
$   Output To  : C:\Documents\Grad_School\!AE_Masters_Project\AE_Masters_Project\Nastran\!FinalModels\CompoundTensionStrip2\PyDFEM\CQ8\
$ ***************************************************************************
$
PARAM,PRGPST,NO
PARAM,POST,0
PARAM,OGEOM,NO
PARAM,AUTOSPC,YES
PARAM,K6ROT,100.
PARAM,GRDPNT,0
CORD2C         1       0      0.      0.      0.      0.      0.      1.+FEMAPC1
+FEMAPC1      1.      0.      1.        
CORD2S         2       0      0.      0.      0.      0.      0.      1.+FEMAPC2
+FEMAPC2      1.      0.      1.        
$ Femap Load Set 1 : Untitled
FORCE          1    1247       0      1.71.42857      0.      0.
FORCE          1    1248       0      1.142.8571      0.      0.
FORCE          1    1249       0      1.142.8571      0.      0.
FORCE          1    1250       0      1.142.8571      0.      0.
FORCE          1    1251       0      1.142.8571      0.      0.
FORCE          1    1252       0      1.142.8571      0.      0.
FORCE          1    1253       0      1.142.8571      0.      0.
FORCE          1    1254       0      1.71.42857      0.      0.
$ Femap Constraint Set 1 : Untitled
SPC1           1       2     683
SPC1           1       1     726
SPC1           1       1     727
SPC1           1       1     728
SPC1           1       1     729
SPC1           1       1     730
SPC1           1       1     731
SPC1           1       1     732
SPC1           1       1     733
SPC1           1       1     734
SPC1           1       1     735
SPC1           1       1     736
SPC1           1  123456     737
SPC1           1       2     738
SPC1           1       2     739
SPC1           1       2     740
SPC1           1       2     741
SPC1           1       2     742
SPC1           1       2     743
SPC1           1       2     744
$ ... 65 like lines cut
$ Femap Property 1 : MEMBRANE Property
PSHELL         1       1     .25                                      0.
$ Femap Material 1 : 2024-T351 Al Plate: t = 0.25 to 0.5 inches
MAT1           1  1.07+7             .332.5906-4 1.255-5     70.        +       
+         42000.  40000.  38000.
MAT4           1.0016435  83.0762.5906-4                        
GRID         588       0   8.434    .328      0.       0
GRID         589       0   8.534    .328      0.       0
GRID         590       0   8.634    .328      0.       0
GRID         591       0   8.734    .328      0.       0
GRID         592       0   8.834    .328      0.       0
GRID         593       0   8.834.4279996      0.       0
GRID         594       0   8.834.5279993      0.       0
GRID         595       0   8.834.6279989      0.       0
GRID         596       0   8.834.7279985      0.       0
GRID         597       08.733996.7279985      0.       0
GRID         598       08.633992.7279985      0.       0
GRID         599       08.533987.7279985      0.       0
GRID         600       08.433983.7279985      0.       0
GRID         601       08.385211.7328022      0.       0
GRID         602       08.338312.7470286      0.       0
GRID         603       08.295091.7701311      0.       0
GRID         604       08.257207.8012217      0.       0
GRID         605       08.226116.8391058      0.       0
GRID         606       08.203014.8823274      0.       0
GRID         607       08.188787.9292256      0.       0
$ ... 1004 like lines cut
CQUAD4       606       1     768     683     684     769                
CQUAD4       607       1     769     684     685     770                
CQUAD4       608       1     770     685     686     771                
CQUAD4       609       1     771     686     687     772                
CQUAD4       610       1     772     687     688     773                
CQUAD4       611       1     773     688     689     774                
CQUAD4       612       1     774     689     690     775                
CQUAD4       613       1     775     690     691     776                
CQUAD4       614       1     776     691     692     777                
CQUAD4       615       1     777     692     693     778                
CQUAD4       616       1     778     693     694     695                
CQUAD4       617       1     767     768     769     779                
CQUAD4       618       1     779     769     770     780                
CQUAD4       619       1     780     770     771     781                
CQUAD4       620       1     781     771     772     782                
CQUAD4       621       1     782     772     773     783                
CQUAD4       622       1     783     773     774     784                
CQUAD4       623       1     784     774     775     785                
CQUAD4       624       1     785     775     776     786                
CQUAD4       625       1     786     776     777     787                
$ ... 385 like lines cut
CTRIA3      1011       1    1132    1149    1148                        
CQUAD4      1012       1    1103    1104    1133    1132                
CQUAD4      1013       1    1101    1102    1131    1130                
CQUAD4      1014       1    1104    1079    1080    1133                
CQUAD4      1015       1    1100    1101    1130    1129                
CQUAD4      1016       1    1099    1100    1129    1128                
CQUAD4      1017       1    1098    1099    1128    1127                
CQUAD4      1018       1    1096    1097    1126    1125                
CQUAD4      1019       1    1097    1098    1127    1126                
CQUAD4      1020       1    1115    1122    1121    1114                
CQUAD4      1021       1    1116    1123    1122    1115                
CQUAD4      1022       1    1117    1124    1123    1116                
CQUAD4      1023       1    1114    1121    1113    1178                
CQUAD4      1024       1    1118    1125    1124    1117                
CQUAD4      1025       1    1113    1120    1119    1112                
CQUAD4      1026       1    1095    1096    1125    1118                
CQUAD4      1027       1    1112    1119    1108    1109                
CQUAD4      1028       1    1178    1113    1112    1176                
CQUAD4      1029       1    1179    1114    1178    1174                
CQUAD4      1030       1    1177    1115    1114    1179                
CQUAD4      1031       1    1175    1177    1179    1174                
$ ... 265 like lines cut
CQUAD8      1297       1     591     592     593    1446    1500    1497+       
+           1498    1499                                                
CQUAD8      1298       1    1446     593     594    1447    1498    1501+       
+           1502    1503                                                
CQUAD8      1299       1    1447     594     595    1448    1502    1504+       
+           1505    1506                                                
CQUAD8      1300       1    1448     595     596     597    1505    1507+       
+           1508    1509                                                
CQUAD8      1301       1     590     591    1446    1449    1512    1499+       
+           1510    1511                                                
CQUAD8      1302       1    1449    1446    1447    1450    1510    1503+       
+           1513    1514                                                
CQUAD8      1303       1    1450    1447    1448    1451    1513    1506+       
+           1515    1516                                                
CQUAD8      1304       1    1451    1448     597     598    1515    1509+       
+           1517    1518                                                
CQUAD8      1305       1     589     590    1449    1452    1521    1511+       
+           1519    1520                                                
CQUAD8      1306       1    1452    1449    1450    1453    1519    1514+       
+           1522    1523                                                
CQUAD8      1307       1    1453    1450    1451    1454    1522    1516+       
+           1524    1525                                                
CQUAD8      1308       1    1454    1451     598     599    1524    1518+       
+           1526    1527                                                
CQUAD8      1309       1     588     589    1452    1455    1530    1520+       
+           1528    1529                                                
CQUAD8      1310       1    1455    1452    1453    1456    1528    1523+       
+           1531    1532                                                
CQUAD8      1311       1    1456    1453    1454    1457    1531    1525+       
+           1533    1534                                                
CQUAD8      1312       1    1457    1454     599     600    1533    1527+       
+           1535    1536                                                
CQUAD8      1313       1     631     588    1455    1458    1539    1529+       
+           1537    1538                                                
CQUAD8      1314       1    1458    1455    1456    1459    1537    1532+       
+           1540    1541                                                
CQUAD8      1315       1    1459    1456    1457    1460    1540    1534+       
+           1542    1543                                                
CQUAD8      1316       1    1460    1457     600     601    1542    1536+       
+           1544    1545                                                
$ ... 104 like lines cut
ENDDATA 2b4e2cf2
