INIT MASTER(S)
NASTRAN SYSTEM(442)=-1,SYSTEM(319)=1
ID FFinalM,FEMAP
SOL SESTATIC
CEND
  TITLE = Simcenter Nastran Static Analysis Set
  ECHO = NONE
  DISPLACEMENT(PLOT) = ALL
  SPCFORCE(PLOT) = ALL
  OLOAD(PLOT) = ALL
  FORCE(PLOT,CORNER) = ALL
  STRESS(PLOT,CORNER) = ALL
  SPC = 1
  LOAD = 1
BEGIN BULK
$ ***************************************************************************
$   Written by : Femap
$   Version    : 2412.0
$   Translator : Simcenter Nastran
$   From Model : C:\Documents\Grad_School\!AE_Masters_Project\AE_Masters_Project\Nastran\!FinalModels\CompoundTensionStrip2\PyDFEM\CQ8\CompoundTensionStripCQ8_6.modfem
$   Date       : Sun Nov 23 17:10:15 2025
$   Output To  : C:\Documents\Grad_School\!AE_Masters_Project\AE_Masters_Project\Nastran\!FinalModels\CompoundTensionStrip2\PyDFEM\CQ8\
$ ***************************************************************************
$
PARAM,PRGPST,NO
PARAM,POST,0
PARAM,OGEOM,NO
PARAM,AUTOSPC,YES
PARAM,K6ROT,100.
PARAM,GRDPNT,0
CORD2C         1       0      0.      0.      0.      0.      0.      1.+FEMAPC1
+FEMAPC1      1.      0.      1.        
CORD2S         2       0      0.      0.      0.      0.      0.      1.+FEMAPC2
+FEMAPC2      1.      0.      1.        
$ Femap Load Set 1 : Untitled
FORCE          1     671       0      1.71.42857      0.      0.
FORCE          1     672       0      1.142.8571      0.      0.
FORCE          1     673       0      1.142.8571      0.      0.
FORCE          1     674       0      1.142.8571      0.      0.
FORCE          1     675       0      1.142.8571      0.      0.
FORCE          1     676       0      1.142.8571      0.      0.
FORCE          1     677       0      1.142.8571      0.      0.
FORCE          1     678       0      1.71.42857      0.      0.
$ Femap Constraint Set 1 : Untitled
SPC1           1       2       1
SPC1           1       1      44
SPC1           1       1      45
SPC1           1       1      46
SPC1           1       1      47
SPC1           1       1      48
SPC1           1       1      49
SPC1           1       1      50
SPC1           1       1      51
SPC1           1       1      52
SPC1           1       1      53
SPC1           1       1      54
SPC1           1  123456      55
SPC1           1       2      56
SPC1           1       2      57
SPC1           1       2      58
SPC1           1       2      59
SPC1           1       2      60
SPC1           1       2      61
SPC1           1       2      62
$ ... 73 like lines cut
$ Femap Property 1 : MEMBRANE Property
PSHELL         1       1     .25                                      0.
$ Femap Material 1 : 2024-T351 Al Plate: t = 0.25 to 0.5 inches
MAT1           1  1.07+7             .332.5906-4 1.255-5     70.        +       
+         42000.  40000.  38000.
MAT4           1.0016435  83.0762.5906-4                        
GRID           1       06.499987      0.      0.       0
GRID           2       06.499987 .204545      0.       0
GRID           3       06.499987.4090901      0.       0
GRID           4       06.499987.6136351      0.       0
GRID           5       06.499987.8181802      0.       0
GRID           6       06.4999871.022725      0.       0
GRID           7       06.499987 1.22727      0.       0
GRID           8       06.4999871.431815      0.       0
GRID           9       06.499987 1.63636      0.       0
GRID          10       06.4999871.840905      0.       0
GRID          11       06.499987 2.04545      0.       0
GRID          12       06.4999872.249995      0.       0
GRID          13       06.2968622.249995      0.       0
GRID          14       06.0937382.249995      0.       0
GRID          15       05.8906132.249995      0.       0
GRID          16       05.6874892.249995      0.       0
GRID          17       05.4843642.249995      0.       0
GRID          18       05.2812392.249995      0.       0
GRID          19       05.0781152.249995      0.       0
GRID          20       0 4.874992.249995      0.       0
$ ... 1038 like lines cut
CQUAD4         1       1      89      11      12      13                
CQUAD4         2       1      90      89      13      14                
CQUAD4         3       1      91      90      14      15                
CQUAD4         4       1      92      91      15      16                
CQUAD4         5       1      93      92      16      17                
CQUAD4         6       1      94      93      17      18                
CQUAD4         7       1      95      94      18      19                
CQUAD4         8       1      96      95      19      20                
CQUAD4         9       1      97      96      20      21                
CQUAD4        10       1      98      97      21      22                
CQUAD4        11       1      99      98      22      23                
CQUAD4        12       1     100      99      23      24                
CQUAD4        13       1     101     100      24      25                
CQUAD4        14       1     102     101      25      26                
CQUAD4        15       1     103     102      26      27                
CQUAD4        16       1     104     103      27      28                
CQUAD4        17       1     105     104      28      29                
CQUAD4        18       1     106     105      29      30                
CQUAD4        19       1     107     106      30      31                
CQUAD4        20       1     108     107      31      32                
$ ... 409 like lines cut
CTRIA3       494       1     588     560     631                        
CQUAD4       495       1     589     548     609     549                
CQUAD4       496       1     563     571     587     562                
CQUAD4       497       1     562     587     553     554                
CQUAD4       498       1       2     566     565       3                
CQUAD4       499       1       3     565     564       4                
CQUAD4       500       1       4     564     563       5                
CQUAD4       501       1       1     539     566       2                
CQUAD4       502       1       5     563     562       6                
CQUAD4       503       1       6     562     554       7                
CQUAD4       504       1     558     476     475     559                
CQUAD4       505       1     557     477     476     558                
CQUAD4       506       1     556     599     477     557                
CQUAD4       507       1     599     598     478     477                
CQUAD4       508       1     594     595     598     599                
CQUAD4       509       1     555     594     599     556                
CQUAD4       510       1     595     596     600     598                
CQUAD4       511       1     598     600     479     478                
CQUAD4       512       1     596     597     601     600                
CQUAD4       513       1     600     601     440     479                
CQUAD4       514       1     597     527     440     601                
$ ... 54 like lines cut
CTRIA3       569       1     631     560     561                        
CQUAD4       570       1     900     898     871     872                
CQUAD4       571       1     899     897     898     900                
CQUAD4       572       1     886     899     900     885                
CQUAD4       573       1     885     900     872     873                
CQUAD4       574       1     892     893     897     899                
CQUAD4       575       1     887     892     899     886                
CQUAD4       576       1     898     896     870     871                
CQUAD4       577       1     897     895     896     898                
CQUAD4       578       1     893     894     895     897                
CQUAD4       579       1     896     879     869     870                
CQUAD4       580       1     895     878     879     896                
CQUAD4       581       1     894     877     878     895                
CQUAD4       582       1     888     889     892     887                
CQUAD4       583       1     889     890     893     892                
CQUAD4       584       1     890     891     894     893                
CQUAD4       585       1     891     876     877     894                
CQUAD4       586       1     884     875     876     891                
CQUAD4       587       1     883     884     891     890                
CQUAD4       588       1     882     883     890     889                
CQUAD4       589       1     881     882     889     888                
$ ... 223 like lines cut
CQUAD8       813       1     443     444     445     911     959     956+       
+            957     958                                                
CQUAD8       814       1     911     445     446     912     957     960+       
+            961     962                                                
CQUAD8       815       1     912     446     447     913     961     963+       
+            964     965                                                
CQUAD8       816       1     913     447     448     449     964     966+       
+            967     968                                                
CQUAD8       817       1     442     443     911     914     971     958+       
+            969     970                                                
CQUAD8       818       1     914     911     912     915     969     962+       
+            972     973                                                
CQUAD8       819       1     915     912     913     916     972     965+       
+            974     975                                                
CQUAD8       820       1     916     913     449     450     974     968+       
+            976     977                                                
CQUAD8       821       1     441     442     914     917     980     970+       
+            978     979                                                
CQUAD8       822       1     917     914     915     918     978     973+       
+            981     982                                                
CQUAD8       823       1     918     915     916     919     981     975+       
+            983     984                                                
CQUAD8       824       1     919     916     450     451     983     977+       
+            985     986                                                
CQUAD8       825       1     440     441     917     920     989     979+       
+            987     988                                                
CQUAD8       826       1     920     917     918     921     987     982+       
+            990     991                                                
CQUAD8       827       1     921     918     919     922     990     984+       
+            992     993                                                
CQUAD8       828       1     922     919     451     452     992     986+       
+            994     995                                                
CQUAD8       829       1     479     440     920     923     998     988+       
+            996     997                                                
CQUAD8       830       1     923     920     921     924     996     991+       
+            999    1000                                                
CQUAD8       831       1     924     921     922     925     999     993+       
+           1001    1002                                                
CQUAD8       832       1     925     922     452     453    1001     995+       
+           1003    1004                                                
$ ... 88 like lines cut
ENDDATA e9d5df9c
