INIT MASTER(S)
NASTRAN SYSTEM(442)=-1,SYSTEM(319)=1
ID FFinalM,FEMAP
SOL SESTATIC
CEND
  TITLE = Simcenter Nastran Static Analysis Set
  ECHO = NONE
  DISPLACEMENT(PLOT) = ALL
  SPCFORCE(PLOT) = ALL
  OLOAD(PLOT) = ALL
  FORCE(PLOT,CORNER) = ALL
  STRESS(PLOT,CORNER) = ALL
  SPC = 1
  LOAD = 1
BEGIN BULK
$ ***************************************************************************
$   Written by : Femap
$   Version    : 2412.0
$   Translator : Simcenter Nastran
$   From Model : C:\Documents\Grad_School\!AE_Masters_Project\AE_Masters_Project\Nastran\!FinalModels\CompoundTensionStrip2\PyDFEM\CQ8\CompoundTensionStripCQ8_12.modfem
$   Date       : Sun Nov 23 17:42:57 2025
$   Output To  : C:\Documents\Grad_School\!AE_Masters_Project\AE_Masters_Project\Nastran\!FinalModels\CompoundTensionStrip2\PyDFEM\CQ8\
$ ***************************************************************************
$
PARAM,PRGPST,NO
PARAM,POST,0
PARAM,OGEOM,NO
PARAM,AUTOSPC,YES
PARAM,K6ROT,100.
PARAM,GRDPNT,0
CORD2C         1       0      0.      0.      0.      0.      0.      1.+FEMAPC1
+FEMAPC1      1.      0.      1.        
CORD2S         2       0      0.      0.      0.      0.      0.      1.+FEMAPC2
+FEMAPC2      1.      0.      1.        
$ Femap Load Set 1 : Untitled
FORCE          1    1698       0      1.55.55556      0.      0.
FORCE          1    1699       0      1.111.1111      0.      0.
FORCE          1    1700       0      1.111.1111      0.      0.
FORCE          1    1701       0      1.111.1111      0.      0.
FORCE          1    1702       0      1.111.1111      0.      0.
FORCE          1    1703       0      1.111.1111      0.      0.
FORCE          1    1704       0      1.111.1111      0.      0.
FORCE          1    1705       0      1.111.1111      0.      0.
FORCE          1    1706       0      1.111.1111      0.      0.
FORCE          1    1707       0      1.55.55556      0.      0.
$ Femap Constraint Set 1 : Untitled
SPC1           1       2    1077
SPC1           1       1    1120
SPC1           1       1    1121
SPC1           1       1    1122
SPC1           1       1    1123
SPC1           1       1    1124
SPC1           1       1    1125
SPC1           1       1    1126
SPC1           1       1    1127
SPC1           1       1    1128
SPC1           1       1    1129
SPC1           1       1    1130
SPC1           1  123456    1131
SPC1           1       2    1132
SPC1           1       2    1133
SPC1           1       2    1134
SPC1           1       2    1135
SPC1           1       2    1136
SPC1           1       2    1137
SPC1           1       2    1138
$ ... 84 like lines cut
$ Femap Property 1 : MEMBRANE Property
PSHELL         1       1     .25                                      0.
$ Femap Material 1 : 2024-T351 Al Plate: t = 0.25 to 0.5 inches
MAT1           1  1.07+7             .332.5906-4 1.255-5     70.        +       
+         42000.  40000.  38000.
MAT4           1.0016435  83.0762.5906-4                        
GRID         692       0   8.434    .328      0.       0
GRID         693       0   8.514    .328      0.       0
GRID         694       0   8.594    .328      0.       0
GRID         695       0   8.674    .328      0.       0
GRID         696       0   8.754    .328      0.       0
GRID         697       0   8.834    .328      0.       0
GRID         698       0   8.834.4079997      0.       0
GRID         699       0   8.834.4879994      0.       0
GRID         700       0   8.834.5679991      0.       0
GRID         701       0   8.834.6479988      0.       0
GRID         702       0   8.834.7279985      0.       0
GRID         703       08.753997.7279985      0.       0
GRID         704       08.673993.7279985      0.       0
GRID         705       0 8.59399.7279985      0.       0
GRID         706       08.513987.7279985      0.       0
GRID         707       08.433983.7279985      0.       0
GRID         708       08.394875.7310765      0.       0
GRID         709       08.356729.7402344      0.       0
GRID         710       08.320486.7552469      0.       0
GRID         711       08.287037.7757442      0.       0
$ ... 1300 like lines cut
CQUAD8       634       1     696     697     698     746     833     830+       
+            831     832                                                
CQUAD8       635       1     746     698     699     747     831     834+       
+            835     836                                                
CQUAD8       636       1     747     699     700     748     835     837+       
+            838     839                                                
CQUAD8       637       1     748     700     701     749     838     840+       
+            841     842                                                
CQUAD8       638       1     749     701     702     703     841     843+       
+            844     845                                                
CQUAD8       639       1     695     696     746     750     848     832+       
+            846     847                                                
CQUAD8       640       1     750     746     747     751     846     836+       
+            849     850                                                
CQUAD8       641       1     751     747     748     752     849     839+       
+            851     852                                                
CQUAD8       642       1     752     748     749     753     851     842+       
+            853     854                                                
CQUAD8       643       1     753     749     703     704     853     845+       
+            855     856                                                
CQUAD8       644       1     694     695     750     754     859     847+       
+            857     858                                                
CQUAD8       645       1     754     750     751     755     857     850+       
+            860     861                                                
CQUAD8       646       1     755     751     752     756     860     852+       
+            862     863                                                
CQUAD8       647       1     756     752     753     757     862     854+       
+            864     865                                                
CQUAD8       648       1     757     753     704     705     864     856+       
+            866     867                                                
CQUAD8       649       1     693     694     754     758     870     858+       
+            868     869                                                
CQUAD8       650       1     758     754     755     759     868     861+       
+            871     872                                                
CQUAD8       651       1     759     755     756     760     871     863+       
+            873     874                                                
CQUAD8       652       1     760     756     757     761     873     865+       
+            875     876                                                
CQUAD8       653       1     761     757     705     706     875     867+       
+            877     878                                                
$ ... 180 like lines cut
CQUAD4       744       1    1162    1077    1078    1163                
CQUAD4       745       1    1163    1078    1079    1164                
CQUAD4       746       1    1164    1079    1080    1165                
CQUAD4       747       1    1165    1080    1081    1166                
CQUAD4       748       1    1166    1081    1082    1167                
CQUAD4       749       1    1167    1082    1083    1168                
CQUAD4       750       1    1168    1083    1084    1169                
CQUAD4       751       1    1169    1084    1085    1170                
CQUAD4       752       1    1170    1085    1086    1171                
CQUAD4       753       1    1171    1086    1087    1172                
CQUAD4       754       1    1172    1087    1088    1089                
CQUAD4       755       1    1161    1162    1163    1173                
CQUAD4       756       1    1173    1163    1164    1174                
CQUAD4       757       1    1174    1164    1165    1175                
CQUAD4       758       1    1175    1165    1166    1176                
CQUAD4       759       1    1176    1166    1167    1177                
CQUAD4       760       1    1177    1167    1168    1178                
CQUAD4       761       1    1178    1168    1169    1179                
CQUAD4       762       1    1179    1169    1170    1180                
CQUAD4       763       1    1180    1170    1171    1181                
$ ... 364 like lines cut
CTRIA3      1128       1    1543    1551    1550                        
CQUAD4      1129       1    1543    1550    1549    1542                
CQUAD4      1130       1    1545    1553    1552    1544                
CQUAD4      1131       1    1542    1549    1548    1541                
CQUAD4      1132       1    1519    1520    1553    1545                
CQUAD4      1133       1    1546     735     734    1509                
CQUAD4      1134       1    1547    1546    1509    1510                
CQUAD4      1135       1    1541    1548    1511    1512                
CQUAD4      1136       1    1548    1547    1510    1511                
CQUAD4      1137       1    1536    1541    1512    1513                
CQUAD4      1138       1    1537    1542    1541    1536                
CQUAD4      1139       1    1538    1543    1542    1537                
CQUAD4      1140       1    1540    1545    1544    1539                
CQUAD4      1141       1    1539    1544    1543    1538                
CQUAD4      1142       1    1518    1519    1545    1540                
CQUAD4      1143       1    1534    1539    1538    1533                
CQUAD4      1144       1    1535    1540    1539    1534                
CQUAD4      1145       1    1517    1518    1540    1535                
CQUAD4      1146       1    1533    1538    1537    1532                
CQUAD4      1147       1    1531    1536    1513    1514                
CQUAD4      1148       1    1532    1537    1536    1531                
CQUAD4      1149       1    1529    1534    1533    1528                
CTRIA3      1150       1    1528    1533    1532                        
CQUAD4      1151       1    1528    1532    1531    1527                
CQUAD4      1152       1    1530    1535    1534    1529                
CQUAD4      1153       1    1527    1531    1514    1515                
CQUAD4      1154       1    1516    1517    1535    1530                
CQUAD4      1155       1    1526    1475     692     745                
CQUAD4      1156       1    1078    1516    1530    1079                
CQUAD4      1157       1    1079    1530    1529    1080                
CQUAD4      1158       1    1080    1529    1528    1081                
CQUAD4      1159       1    1081    1528    1527    1082                
CQUAD4      1160       1    1082    1527    1515    1083                
CQUAD4      1161       1    1494    1495    1579    1583                
CQUAD4      1162       1    1493    1494    1583    1581                
CQUAD4      1163       1    1583    1579    1580    1581                
CQUAD4      1164       1    1492    1493    1581    1582                
CQUAD4      1165       1    1581    1580    1518    1517                
CQUAD4      1166       1    1584    1582    1581    1585                
CQUAD4      1167       1    1574    1584    1585    1516                
CQUAD4      1168       1    1585    1581    1517    1516                
CQUAD4      1169       1    1491    1492    1582    1584                
CQUAD4      1170       1    1490    1491    1584    1574                
$ ... 111 like lines cut
CTRIA3      1282       1    1654    1660    1659                        
CQUAD4      1283       1    1475    1654     693     692                
CQUAD4      1284       1    1473    1650    1655    1474                
CQUAD4      1285       1    1796    1827    1826    1795                
CQUAD4      1286       1    1827    1824    1825    1826                
CQUAD4      1287       1    1797    1824    1827    1796                
CQUAD4      1288       1    1786    1787    1824    1797                
CQUAD4      1289       1    1795    1826    1823    1794                
CQUAD4      1290       1    1826    1825    1822    1823                
CQUAD4      1291       1    1787    1788    1819    1824                
CQUAD4      1292       1    1824    1819    1820    1825                
CQUAD4      1293       1    1825    1820    1821    1822                
CQUAD4      1294       1    1794    1823    1818    1793                
CQUAD4      1295       1    1823    1822    1817    1818                
CQUAD4      1296       1    1822    1821    1816    1817                
CQUAD4      1297       1    1788    1789    1812    1819                
CQUAD4      1298       1    1819    1812    1813    1820                
CQUAD4      1299       1    1820    1813    1814    1821                
CQUAD4      1300       1    1821    1814    1815    1816                
CQUAD4      1301       1    1793    1818    1811    1792                
CQUAD4      1302       1    1818    1817    1810    1811                
$ ... 72 like lines cut
CTRIA3      1375       1    1869    1875    1874                        
CQUAD4      1376       1    1868    1869    1874    1867                
CQUAD4      1377       1    1870    1863    1864    1876                
CQUAD4      1378       1    1871    1865    1731    1732                
CQUAD4      1379       1    1872    1871    1732    1733                
CQUAD4      1380       1    1866    1873    1734    1735                
CQUAD4      1381       1    1873    1872    1733    1734                
CQUAD4      1382       1    1859    1860    1869    1868                
CQUAD4      1383       1    1860    1861    1870    1869                
CQUAD4      1384       1    1861    1862    1863    1870                
CQUAD4      1385       1    1769    1866    1735    1736                
CQUAD4      1386       1    1770    1867    1866    1769                
CQUAD4      1387       1    1772    1859    1868    1771                
CQUAD4      1388       1    1771    1868    1867    1770                
CQUAD4      1389       1    1862    1779    1778    1863                
CQUAD4      1390       1    1863    1778    1777    1864                
CQUAD4      1391       1    1865    1776    1730    1731                
CQUAD4      1392       1    1864    1777    1776    1865                
CQUAD4      1393       1    1858    1780    1779    1862                
CQUAD4      1394       1    1857    1858    1862    1861                
CQUAD4      1395       1    1856    1857    1861    1860                
$ ... 22 like lines cut
CTRIA3      1418       1    1906    1909    1908                        
CQUAD4      1419       1    1905    1906    1908    1904                
CQUAD4      1420       1    1907    1902    1903    1910                
CQUAD4      1421       1    1898    1899    1906    1905                
CQUAD4      1422       1    1899    1900    1907    1906                
CQUAD4      1423       1    1900    1901    1902    1907                
CQUAD4      1424       1    1751    1898    1905    1750                
CQUAD4      1425       1    1750    1905    1904    1749                
CQUAD4      1426       1    1749    1904    1889    1748                
CQUAD4      1427       1    1901    1772    1771    1902                
CQUAD4      1428       1    1902    1771    1770    1903                
CQUAD4      1429       1    1903    1770    1769    1885                
CQUAD4      1430       1    1897    1773    1772    1901                
CQUAD4      1431       1    1896    1897    1901    1900                
CQUAD4      1432       1    1895    1896    1900    1899                
CQUAD4      1433       1    1894    1895    1899    1898                
CQUAD4      1434       1    1752    1894    1898    1751                
CQUAD4      1435       1    1893    1774    1773    1897                
CQUAD4      1436       1    1892    1893    1897    1896                
CQUAD4      1437       1    1891    1892    1896    1895                
CQUAD4      1438       1    1890    1891    1895    1894                
$ ... 18 like lines cut
CTRIA3      1457       1    1913    1927    1912                        
CQUAD4      1458       1    1921    1922    1927    1926                
CQUAD4      1459       1    1927    1925    1911    1912                
CQUAD4      1460       1    1922    1923    1925    1927                
CQUAD4      1461       1    1920    1921    1926    1924                
CQUAD4      1462       1    1924    1926    1914    1915                
CQUAD4      1463       1    1925    1759    1760    1911                
CQUAD4      1464       1    1923    1758    1759    1925                
CQUAD4      1465       1    1765    1920    1924    1766                
CQUAD4      1466       1    1766    1924    1915    1767                
CQUAD4      1467       1    1931    1930    1921    1920                
CQUAD4      1468       1    1916    1917    1930    1931                
CQUAD4      1469       1    1763    1916    1931    1764                
CQUAD4      1470       1    1764    1931    1920    1765                
CQUAD4      1471       1    1930    1929    1922    1921                
CQUAD4      1472       1    1917    1918    1929    1930                
CQUAD4      1473       1    1929    1928    1923    1922                
CQUAD4      1474       1    1918    1919    1928    1929                
CQUAD4      1475       1    1928    1757    1758    1923                
CQUAD4      1476       1    1919    1756    1757    1928                
CQUAD4      1477       1    1935    1934    1917    1916                
$ ... 118 like lines cut
ENDDATA c80a213e
