INIT MASTER(S)
NASTRAN SYSTEM(442)=-1,SYSTEM(319)=1
ID FFinalM,FEMAP
SOL SESTATIC
CEND
  TITLE = Simcenter Nastran Static Analysis Set
  ECHO = NONE
  DISPLACEMENT(PLOT) = ALL
  SPCFORCE(PLOT) = ALL
  OLOAD(PLOT) = ALL
  FORCE(PLOT,CORNER) = ALL
  STRESS(PLOT,CORNER) = ALL
  SPC = 1
  LOAD = 1
BEGIN BULK
$ ***************************************************************************
$   Written by : Femap
$   Version    : 2412.0
$   Translator : Simcenter Nastran
$   From Model : C:\Documents\Grad_School\!AE_Masters_Project\AE_Masters_Project\Nastran\!FinalModels\CompoundTensionStrip2\PyDFEM\CQ8\CompoundTensionStripCQ8_4.modfem
$   Date       : Sun Nov 23 17:17:40 2025
$   Output To  : C:\Documents\Grad_School\!AE_Masters_Project\AE_Masters_Project\Nastran\!FinalModels\CompoundTensionStrip2\PyDFEM\CQ8\
$ ***************************************************************************
$
PARAM,PRGPST,NO
PARAM,POST,0
PARAM,OGEOM,NO
PARAM,AUTOSPC,YES
PARAM,K6ROT,100.
PARAM,GRDPNT,0
CORD2C         1       0      0.      0.      0.      0.      0.      1.+FEMAPC1
+FEMAPC1      1.      0.      1.        
CORD2S         2       0      0.      0.      0.      0.      0.      1.+FEMAPC2
+FEMAPC2      1.      0.      1.        
$ Femap Load Set 1 : Untitled
FORCE          1     620       0      1.71.42857      0.      0.
FORCE          1     621       0      1.142.8571      0.      0.
FORCE          1     622       0      1.142.8571      0.      0.
FORCE          1     623       0      1.142.8571      0.      0.
FORCE          1     624       0      1.142.8571      0.      0.
FORCE          1     625       0      1.142.8571      0.      0.
FORCE          1     626       0      1.142.8571      0.      0.
FORCE          1     627       0      1.71.42857      0.      0.
$ Femap Constraint Set 1 : Untitled
SPC1           1       2      83
SPC1           1       1     126
SPC1           1       1     127
SPC1           1       1     128
SPC1           1       1     129
SPC1           1       1     130
SPC1           1       1     131
SPC1           1       1     132
SPC1           1       1     133
SPC1           1       1     134
SPC1           1       1     135
SPC1           1       1     136
SPC1           1  123456     137
SPC1           1       2     138
SPC1           1       2     139
SPC1           1       2     140
SPC1           1       2     141
SPC1           1       2     142
SPC1           1       2     143
SPC1           1       2     144
$ ... 57 like lines cut
$ Femap Property 1 : MEMBRANE Property
PSHELL         1       1     .25                                      0.
$ Femap Material 1 : 2024-T351 Al Plate: t = 0.25 to 0.5 inches
MAT1           1  1.07+7             .332.5906-4 1.255-5     70.        +       
+         42000.  40000.  38000.
MAT4           1.0016435  83.0762.5906-4                        
GRID           1       0   8.434    .328      0.       0
GRID           2       0   8.534    .328      0.       0
GRID           3       0   8.634    .328      0.       0
GRID           4       0   8.734    .328      0.       0
GRID           5       0   8.834    .328      0.       0
GRID           6       0   8.834.4279996      0.       0
GRID           7       0   8.834.5279993      0.       0
GRID           8       0   8.834.6279989      0.       0
GRID           9       0   8.834.7279985      0.       0
GRID          10       08.733996.7279985      0.       0
GRID          11       08.633992.7279985      0.       0
GRID          12       08.533987.7279985      0.       0
GRID          13       08.433983.7279985      0.       0
GRID          14       08.338312.7470286      0.       0
GRID          15       08.257207.8012217      0.       0
GRID          16       08.203014.8823274      0.       0
GRID          17       08.183984 .977998      0.       0
GRID          18       08.1839841.112498      0.       0
GRID          19       08.1839841.246998      0.       0
GRID          20       08.1839841.381497      0.       0
$ ... 886 like lines cut
CQUAD4        63       1     168      83      84     169                
CQUAD4        64       1     169      84      85     170                
CQUAD4        65       1     170      85      86     171                
CQUAD4        66       1     171      86      87     172                
CQUAD4        67       1     172      87      88     173                
CQUAD4        68       1     173      88      89     174                
CQUAD4        69       1     174      89      90     175                
CQUAD4        70       1     175      90      91     176                
CQUAD4        71       1     176      91      92     177                
CQUAD4        72       1     177      92      93     178                
CQUAD4        73       1     178      93      94      95                
CQUAD4        74       1     167     168     169     179                
CQUAD4        75       1     179     169     170     180                
CQUAD4        76       1     180     170     171     181                
CQUAD4        77       1     181     171     172     182                
CQUAD4        78       1     182     172     173     183                
CQUAD4        79       1     183     173     174     184                
CQUAD4        80       1     184     174     175     185                
CQUAD4        81       1     185     175     176     186                
CQUAD4        82       1     186     176     177     187                
$ ... 530 like lines cut
CQUAD8       923       1       4       5       6    1322    1006    1005+       
+           1355    1356                                                
CQUAD8       924       1    1322       6       7    1323    1355    1003+       
+           1357    1358                                                
CQUAD8       925       1    1323       7       8    1324    1357    1001+       
+           1359    1360                                                
CQUAD8       926       1    1324       8       9      10    1359    1007+       
+           1008    1361                                                
CQUAD8       927       1       3       4    1322    1325     993    1356+       
+           1362    1363                                                
CQUAD8       928       1    1325    1322    1323    1326    1362    1358+       
+           1364    1365                                                
CQUAD8       929       1    1326    1323    1324    1327    1364    1360+       
+           1366    1367                                                
CQUAD8       930       1    1327    1324      10      11    1366    1361+       
+            998    1368                                                
CQUAD8       931       1       2       3    1325    1328     990    1363+       
+           1369    1370                                                
CQUAD8       932       1    1328    1325    1326    1329    1369    1365+       
+           1371    1372                                                
CQUAD8       933       1    1329    1326    1327    1330    1371    1367+       
+           1373    1374                                                
CQUAD8       934       1    1330    1327      11      12    1373    1368+       
+            984    1375                                                
CQUAD8       935       1       1       2    1328    1331     942    1370+       
+           1376    1377                                                
CQUAD8       936       1    1331    1328    1329    1332    1376    1372+       
+           1378    1379                                                
CQUAD8       937       1    1332    1329    1330    1333    1378    1374+       
+           1380    1381                                                
CQUAD8       938       1    1333    1330      12      13    1380    1375+       
+            944    1382                                                
CQUAD8       939       1    1158       1    1331    1334    1310    1377+       
+           1383    1384                                                
CQUAD8       940       1    1334    1331    1332    1335    1383    1379+       
+           1385    1386                                                
CQUAD8       941       1    1335    1332    1333    1336    1385    1381+       
+           1387    1388                                                
CQUAD8       942       1    1336    1333      13      14    1387    1382+       
+            922    1389                                                
$ ... 56 like lines cut
CQUAD4       971       1    1441    1442    1521    1478                
CQUAD4       972       1    1478    1523    1475    1476                
CQUAD4       973       1    1519    1441    1478    1473                
CQUAD4       974       1    1473    1478    1476    1472                
CQUAD4       975       1    1443    1444    1460    1477                
CQUAD4       976       1    1475    1474    1480    1482                
CQUAD4       977       1    1476    1475    1482    1479                
CQUAD4       978       1    1482    1480    1481    1479                
CQUAD4       979       1    1479    1481    1464    1465                
CQUAD4       980       1    1474    1461    1462    1480                
CQUAD4       981       1    1480    1462    1463    1481                
CQUAD4       982       1    1481    1463    1450    1464                
CQUAD4       983       1    1472    1476    1479    1471                
CQUAD4       984       1    1471    1479    1465    1466                
CQUAD4       985       1    1470    1473    1472    1469                
CQUAD4       986       1    1469    1472    1471    1468                
CQUAD4       987       1    1468    1471    1466    1467                
CQUAD4       988       1    1440    1519    1473    1470                
CQUAD4       989       1    1459    1470    1469    1458                
CQUAD4       990       1    1458    1469    1468    1457                
$ ... 87 like lines cut
ENDDATA 50f73f72
