INIT MASTER(S)
NASTRAN SYSTEM(442)=-1,SYSTEM(319)=1
ID FFinalM,FEMAP
SOL SESTATIC
CEND
  TITLE = Simcenter Nastran Static Analysis Set
  ECHO = NONE
  DISPLACEMENT(PLOT) = ALL
  SPCFORCE(PLOT) = ALL
  OLOAD(PLOT) = ALL
  FORCE(PLOT,CORNER) = ALL
  STRESS(PLOT,CORNER) = ALL
  SPC = 1
  LOAD = 1
BEGIN BULK
$ ***************************************************************************
$   Written by : Femap
$   Version    : 2412.0
$   Translator : Simcenter Nastran
$   From Model : C:\Documents\Grad_School\!AE_Masters_Project\AE_Masters_Project\Nastran\!FinalModels\CompoundTensionStrip2\PyDFEM\CQ4\CompoundTensionStripCQ4_6.modfem
$   Date       : Sun Nov 23 15:22:24 2025
$   Output To  : C:\Documents\Grad_School\!AE_Masters_Project\AE_Masters_Project\Nastran\!FinalModels\CompoundTensionStrip2\PyDFEM\CQ4\
$ ***************************************************************************
$
PARAM,PRGPST,NO
PARAM,POST,0
PARAM,OGEOM,NO
PARAM,AUTOSPC,YES
PARAM,K6ROT,100.
PARAM,GRDPNT,0
CORD2C         1       0      0.      0.      0.      0.      0.      1.+FEMAPC1
+FEMAPC1      1.      0.      1.        
CORD2S         2       0      0.      0.      0.      0.      0.      1.+FEMAPC2
+FEMAPC2      1.      0.      1.        
$ Femap Load Set 1 : Untitled
FORCE          1     671       0      1.71.42857      0.      0.
FORCE          1     672       0      1.142.8571      0.      0.
FORCE          1     673       0      1.142.8571      0.      0.
FORCE          1     674       0      1.142.8571      0.      0.
FORCE          1     675       0      1.142.8571      0.      0.
FORCE          1     676       0      1.142.8571      0.      0.
FORCE          1     677       0      1.142.8571      0.      0.
FORCE          1     678       0      1.71.42857      0.      0.
$ Femap Constraint Set 1 : Untitled
SPC1           1       2       1
SPC1           1       1      44
SPC1           1       1      45
SPC1           1       1      46
SPC1           1       1      47
SPC1           1       1      48
SPC1           1       1      49
SPC1           1       1      50
SPC1           1       1      51
SPC1           1       1      52
SPC1           1       1      53
SPC1           1       1      54
SPC1           1  123456      55
SPC1           1       2      56
SPC1           1       2      57
SPC1           1       2      58
SPC1           1       2      59
SPC1           1       2      60
SPC1           1       2      61
SPC1           1       2      62
$ ... 73 like lines cut
$ Femap Property 1 : MEMBRANE Property
PSHELL         1       1     .25                                      0.
$ Femap Material 1 : 2024-T351 Al Plate: t = 0.25 to 0.5 inches
MAT1           1  1.07+7             .332.5906-4 1.255-5     70.        +       
+         42000.  40000.  38000.
MAT4           1.0016435  83.0762.5906-4                        
GRID           1       06.499987      0.      0.       0
GRID           2       06.499987 .204545      0.       0
GRID           3       06.499987.4090901      0.       0
GRID           4       06.499987.6136351      0.       0
GRID           5       06.499987.8181802      0.       0
GRID           6       06.4999871.022725      0.       0
GRID           7       06.499987 1.22727      0.       0
GRID           8       06.4999871.431815      0.       0
GRID           9       06.499987 1.63636      0.       0
GRID          10       06.4999871.840905      0.       0
GRID          11       06.499987 2.04545      0.       0
GRID          12       06.4999872.249995      0.       0
GRID          13       06.2968622.249995      0.       0
GRID          14       06.0937382.249995      0.       0
GRID          15       05.8906132.249995      0.       0
GRID          16       05.6874892.249995      0.       0
GRID          17       05.4843642.249995      0.       0
GRID          18       05.2812392.249995      0.       0
GRID          19       05.0781152.249995      0.       0
GRID          20       0 4.874992.249995      0.       0
$ ... 890 like lines cut
CQUAD4         1       1      12      13      89      11                
CQUAD4         2       1      13      14      90      89                
CQUAD4         3       1      14      15      91      90                
CQUAD4         4       1      15      16      92      91                
CQUAD4         5       1      16      17      93      92                
CQUAD4         6       1      17      18      94      93                
CQUAD4         7       1      18      19      95      94                
CQUAD4         8       1      19      20      96      95                
CQUAD4         9       1      20      21      97      96                
CQUAD4        10       1      21      22      98      97                
CQUAD4        11       1      22      23      99      98                
CQUAD4        12       1      23      24     100      99                
CQUAD4        13       1      24      25     101     100                
CQUAD4        14       1      25      26     102     101                
CQUAD4        15       1      26      27     103     102                
CQUAD4        16       1      27      28     104     103                
CQUAD4        17       1      28      29     105     104                
CQUAD4        18       1      29      30     106     105                
CQUAD4        19       1      30      31     107     106                
CQUAD4        20       1      31      32     108     107                
$ ... 473 like lines cut
CTRIA3       494       1     588     560     631                        
CQUAD4       495       1     589     548     609     549                
CQUAD4       496       1     563     571     587     562                
CQUAD4       497       1     553     554     562     587                
CQUAD4       498       1     566     565       3       2                
CQUAD4       499       1       4       3     565     564                
CQUAD4       500       1       5       4     564     563                
CQUAD4       501       1     539     566       2       1                
CQUAD4       502       1       5     563     562       6                
CQUAD4       503       1     554       7       6     562                
CQUAD4       504       1     559     558     476     475                
CQUAD4       505       1     477     476     558     557                
CQUAD4       506       1     599     477     557     556                
CQUAD4       507       1     478     477     599     598                
CQUAD4       508       1     598     599     594     595                
CQUAD4       509       1     555     594     599     556                
CQUAD4       510       1     596     600     598     595                
CQUAD4       511       1     478     598     600     479                
CQUAD4       512       1     597     601     600     596                
CQUAD4       513       1     440     479     600     601                
CQUAD4       514       1     440     601     597     527                
$ ... 54 like lines cut
CTRIA3       569       1     560     561     631                        
CQUAD4       570       1     871     872     900     898                
CQUAD4       571       1     899     897     898     900                
CQUAD4       572       1     886     899     900     885                
CQUAD4       573       1     872     873     885     900                
CQUAD4       574       1     893     897     899     892                
CQUAD4       575       1     886     887     892     899                
CQUAD4       576       1     870     871     898     896                
CQUAD4       577       1     897     895     896     898                
CQUAD4       578       1     893     894     895     897                
CQUAD4       579       1     869     870     896     879                
CQUAD4       580       1     895     878     879     896                
CQUAD4       581       1     894     877     878     895                
CQUAD4       582       1     887     888     889     892                
CQUAD4       583       1     890     893     892     889                
CQUAD4       584       1     891     894     893     890                
CQUAD4       585       1     876     877     894     891                
CQUAD4       586       1     875     876     891     884                
CQUAD4       587       1     890     883     884     891                
CQUAD4       588       1     889     882     883     890                
CQUAD4       589       1     888     881     882     889                
$ ... 223 like lines cut
ENDDATA a3170022
