INIT MASTER(S)
NASTRAN SYSTEM(442)=-1,SYSTEM(319)=1
ID FFinalM,FEMAP
SOL SESTATIC
CEND
  TITLE = Simcenter Nastran Static Analysis Set
  ECHO = NONE
  DISPLACEMENT(PLOT) = ALL
  SPCFORCE(PLOT) = ALL
  OLOAD(PLOT) = ALL
  FORCE(PLOT,CORNER) = ALL
  STRESS(PLOT,CORNER) = ALL
  SPC = 1
  LOAD = 1
BEGIN BULK
$ ***************************************************************************
$   Written by : Femap
$   Version    : 2412.0
$   Translator : Simcenter Nastran
$   From Model : C:\Documents\Grad_School\!AE_Masters_Project\AE_Masters_Project\Nastran\!FinalModels\CompoundTensionStrip2\PyDFEM\CQ4\CompoundTensionStripCQ4_12.modfem
$   Date       : Sun Nov 23 19:13:52 2025
$   Output To  : C:\Documents\Grad_School\!AE_Masters_Project\AE_Masters_Project\Nastran\!FinalModels\CompoundTensionStrip2\PyDFEM\CQ4\
$ ***************************************************************************
$
PARAM,PRGPST,NO
PARAM,POST,0
PARAM,OGEOM,NO
PARAM,AUTOSPC,YES
PARAM,K6ROT,100.
PARAM,GRDPNT,0
CORD2C         1       0      0.      0.      0.      0.      0.      1.+FEMAPC1
+FEMAPC1      1.      0.      1.        
CORD2S         2       0      0.      0.      0.      0.      0.      1.+FEMAPC2
+FEMAPC2      1.      0.      1.        
$ Femap Load Set 1 : Untitled
FORCE          1    2100       0      1.55.55556      0.      0.
FORCE          1    2101       0      1.111.1111      0.      0.
FORCE          1    2102       0      1.111.1111      0.      0.
FORCE          1    2103       0      1.111.1111      0.      0.
FORCE          1    2104       0      1.111.1111      0.      0.
FORCE          1    2105       0      1.111.1111      0.      0.
FORCE          1    2106       0      1.111.1111      0.      0.
FORCE          1    2107       0      1.111.1111      0.      0.
FORCE          1    2108       0      1.111.1111      0.      0.
FORCE          1    2109       0      1.55.55556      0.      0.
$ Femap Constraint Set 1 : Untitled
SPC1           1       2    1413
SPC1           1       1    1456
SPC1           1       1    1457
SPC1           1       1    1458
SPC1           1       1    1459
SPC1           1       1    1460
SPC1           1       1    1461
SPC1           1       1    1462
SPC1           1       1    1463
SPC1           1       1    1464
SPC1           1       1    1465
SPC1           1       1    1466
SPC1           1  123456    1467
SPC1           1       2    1468
SPC1           1       2    1469
SPC1           1       2    1470
SPC1           1       2    1471
SPC1           1       2    1472
SPC1           1       2    1473
SPC1           1       2    1474
$ ... 83 like lines cut
$ Femap Property 1 : MEMBRANE Property
PSHELL         1       1     .25                                      0.
$ Femap Material 1 : 2024-T351 Al Plate: t = 0.25 to 0.5 inches
MAT1           1  1.07+7             .332.5906-4 1.255-5     70.        +       
+         42000.  40000.  38000.
MAT4           1.0016435  83.0762.5906-4                        
GRID         848       0   8.434    .328      0.       0
GRID         849       08.491143    .328      0.       0
GRID         850       08.548286    .328      0.       0
GRID         851       08.605429    .328      0.       0
GRID         852       08.662571    .328      0.       0
GRID         853       08.719714    .328      0.       0
GRID         854       08.776857    .328      0.       0
GRID         855       0   8.834    .328      0.       0
GRID         856       0   8.834.4079997      0.       0
GRID         857       0   8.834.4879994      0.       0
GRID         858       0   8.834.5679991      0.       0
GRID         859       0   8.834.6479988      0.       0
GRID         860       0   8.834.7279985      0.       0
GRID         861       08.776855.7279985      0.       0
GRID         862       08.719709.7279985      0.       0
GRID         863       08.662564.7279985      0.       0
GRID         864       08.605419.7279985      0.       0
GRID         865       08.548274.7279985      0.       0
GRID         866       08.491128.7279985      0.       0
GRID         867       08.433983.7279985      0.       0
$ ... 1184 like lines cut
CQUAD4       953       1    1498    1413    1414    1499                
CQUAD4       954       1    1499    1414    1415    1500                
CQUAD4       955       1    1500    1415    1416    1501                
CQUAD4       956       1    1501    1416    1417    1502                
CQUAD4       957       1    1502    1417    1418    1503                
CQUAD4       958       1    1503    1418    1419    1504                
CQUAD4       959       1    1504    1419    1420    1505                
CQUAD4       960       1    1505    1420    1421    1506                
CQUAD4       961       1    1506    1421    1422    1507                
CQUAD4       962       1    1507    1422    1423    1508                
CQUAD4       963       1    1508    1423    1424    1425                
CQUAD4       964       1    1497    1498    1499    1509                
CQUAD4       965       1    1509    1499    1500    1510                
CQUAD4       966       1    1510    1500    1501    1511                
CQUAD4       967       1    1511    1501    1502    1512                
CQUAD4       968       1    1512    1502    1503    1513                
CQUAD4       969       1    1513    1503    1504    1514                
CQUAD4       970       1    1514    1504    1505    1515                
CQUAD4       971       1    1515    1505    1506    1516                
CQUAD4       972       1    1516    1506    1507    1517                
$ ... 513 like lines cut
CTRIA3      1486       1    2000    2010    2009                        
CQUAD4      1487       1    1999    2000    2009    2008                
CQUAD4      1488       1    1998    1999    2008    2007                
CQUAD4      1489       1    1997    1998    2007    2006                
CQUAD4      1490       1    1421    1997    2006    1422                
CQUAD4      1491       1    2001    2002    2025    2005                
CQUAD4      1492       1    2005    2025    1816    1817                
CQUAD4      1493       1    2025    2026    1815    1816                
CQUAD4      1494       1    2026    2003    1814    1815                
CQUAD4      1495       1    2002    2003    2026    2025                
CQUAD4      1496       1    2003    2004    1813    1814                
CQUAD4      1497       1    2004     893     892    1813                
CQUAD4      1498       1    1990    1991    1999    1998                
CQUAD4      1499       1    1989    1990    1998    1997                
CQUAD4      1500       1    1420    1989    1997    1421                
CQUAD4      1501       1    1992    1993    2001    2000                
CQUAD4      1502       1    1991    1992    2000    1999                
CQUAD4      1503       1    2033     894     893    2004                
CQUAD4      1504       1    2034    2027    2028    2031                
CQUAD4      1505       1    1995    2033    2004    2003                
CQUAD4      1506       1    1994    1995    2003    2002                
$ ... 226 like lines cut
CTRIA3      1733       1    2338    2341    2340                        
CQUAD4      1734       1    2337    2338    2340    2336                
CQUAD4      1735       1    2339    2334    2335    2342                
CQUAD4      1736       1    2330    2331    2338    2337                
CQUAD4      1737       1    2331    2332    2339    2338                
CQUAD4      1738       1    2332    2333    2334    2339                
CQUAD4      1739       1    2153    2330    2337    2152                
CQUAD4      1740       1    2152    2337    2336    2151                
CQUAD4      1741       1    2151    2336    2321    2150                
CQUAD4      1742       1    2333    2167    2166    2334                
CQUAD4      1743       1    2334    2166    2165    2335                
CQUAD4      1744       1    2335    2165    2164    2317                
CQUAD4      1745       1    2329    2168    2167    2333                
CQUAD4      1746       1    2328    2329    2333    2332                
CQUAD4      1747       1    2327    2328    2332    2331                
CQUAD4      1748       1    2326    2327    2331    2330                
CQUAD4      1749       1    2154    2326    2330    2153                
CQUAD4      1750       1    2325    2169    2168    2329                
CQUAD4      1751       1    2324    2325    2329    2328                
CQUAD4      1752       1    2323    2324    2328    2327                
CQUAD4      1753       1    2322    2323    2327    2326                
$ ... 286 like lines cut
ENDDATA 075812b9
