INIT MASTER(S)
NASTRAN SYSTEM(442)=-1,SYSTEM(319)=1
ID FFinalM,FEMAP
SOL SESTATIC
CEND
  TITLE = Simcenter Nastran Static Analysis Set
  ECHO = NONE
  DISPLACEMENT(PLOT) = ALL
  SPCFORCE(PLOT) = ALL
  OLOAD(PLOT) = ALL
  FORCE(PLOT,CORNER) = ALL
  STRESS(PLOT,CORNER) = ALL
  SPC = 1
  LOAD = 1
BEGIN BULK
$ ***************************************************************************
$   Written by : Femap
$   Version    : 2412.0
$   Translator : Simcenter Nastran
$   From Model : C:\Documents\Grad_School\!AE_Masters_Project\AE_Masters_Project\Nastran\!FinalModels\CompoundTensionStrip2\PyDFEM\CQ4\CompoundTensionStripCQ4_14.modfem
$   Date       : Sun Nov 23 19:33:03 2025
$   Output To  : C:\Documents\Grad_School\!AE_Masters_Project\AE_Masters_Project\Nastran\!FinalModels\CompoundTensionStrip2\PyDFEM\CQ4\
$ ***************************************************************************
$
PARAM,PRGPST,NO
PARAM,POST,0
PARAM,OGEOM,NO
PARAM,AUTOSPC,YES
PARAM,K6ROT,100.
PARAM,GRDPNT,0
CORD2C         1       0      0.      0.      0.      0.      0.      1.+FEMAPC1
+FEMAPC1      1.      0.      1.        
CORD2S         2       0      0.      0.      0.      0.      0.      1.+FEMAPC2
+FEMAPC2      1.      0.      1.        
$ Femap Load Set 1 : Untitled
FORCE          1    1858       0      1.55.55556      0.      0.
FORCE          1    1859       0      1.111.1111      0.      0.
FORCE          1    1860       0      1.111.1111      0.      0.
FORCE          1    1861       0      1.111.1111      0.      0.
FORCE          1    1862       0      1.111.1111      0.      0.
FORCE          1    1863       0      1.111.1111      0.      0.
FORCE          1    1864       0      1.111.1111      0.      0.
FORCE          1    1865       0      1.111.1111      0.      0.
FORCE          1    1866       0      1.111.1111      0.      0.
FORCE          1    1867       0      1.55.55556      0.      0.
$ Femap Constraint Set 1 : Untitled
SPC1           1       2       1
SPC1           1       1      70
SPC1           1       1      71
SPC1           1       1      72
SPC1           1       1      73
SPC1           1       1      74
SPC1           1       1      75
SPC1           1       1      76
SPC1           1       1      77
SPC1           1       1      78
SPC1           1       1      79
SPC1           1       1      80
SPC1           1  123456      81
SPC1           1       2      82
SPC1           1       2      83
SPC1           1       2      84
SPC1           1       2      85
SPC1           1       2      86
SPC1           1       2      87
SPC1           1       2      88
$ ... 100 like lines cut
$ Femap Property 1 : MEMBRANE Property
PSHELL         1       1     .25                                      0.
$ Femap Material 1 : 2024-T351 Al Plate: t = 0.25 to 0.5 inches
MAT1           1  1.07+7             .332.5906-4 1.255-5     70.        +       
+         42000.  40000.  38000.
MAT4           1.0016435  83.0762.5906-4                        
GRID           1       06.499987      0.      0.       0
GRID           2       06.499987.0608107      0.       0
GRID           3       06.499987.1216214      0.       0
GRID           4       06.499987.1824321      0.       0
GRID           5       06.499987.2432428      0.       0
GRID           6       06.499987.3040534      0.       0
GRID           7       06.499987.3648641      0.       0
GRID           8       06.499987.4256748      0.       0
GRID           9       06.499987.4864855      0.       0
GRID          10       06.499987.5472962      0.       0
GRID          11       06.499987.6081069      0.       0
GRID          12       06.499987.6689176      0.       0
GRID          13       06.499987.7297283      0.       0
GRID          14       06.499987 .790539      0.       0
GRID          15       06.499987.8513496      0.       0
GRID          16       06.499987.9121603      0.       0
GRID          17       06.499987 .972971      0.       0
GRID          18       06.4999871.033782      0.       0
GRID          19       06.4999871.094592      0.       0
GRID          20       06.4999871.155403      0.       0
$ ... 2160 like lines cut
CQUAD4         1       1     104     105     265     266                
CQUAD4         2       1     103     104     266     267                
CQUAD4         3       1     102     103     267     262                
CQUAD4         4       1     266     265     263     264                
CTRIA3         5       1     267     266     264                        
CQUAD4         6       1     262     267     264     261                
CQUAD4         7       1     265     259     260     263                
CQUAD4         8       1     105     106     259     265                
CQUAD4         9       1     261     264     254     255                
CQUAD4        10       1     264     263     253     254                
CQUAD4        11       1     263     260     252     253                
CQUAD4        12       1     101     102     262     258                
CQUAD4        13       1     258     262     261     257                
CQUAD4        14       1     257     261     255     256                
CQUAD4        15       1     260     238     239     252                
CQUAD4        16       1     259     237     238     260                
CQUAD4        17       1     106     107     237     259                
CQUAD4        18       1     229     257     256     228                
CQUAD4        19       1     230     258     257     229                
CQUAD4        20       1     100     101     258     230                
CQUAD4        21       1     252     239     240     247                
CQUAD4        22       1     253     252     247     248                
CQUAD4        23       1     254     253     248     249                
CQUAD4        24       1     255     254     249     250                
CQUAD4        25       1     228     256     251     227                
$ ... 970 like lines cut
CTRIA3       996       1    1543     789     788                        
CQUAD4       997       1    1541    1542     798     797                
CQUAD4       998       1    1525     788     787    1524                
CQUAD4       999       1    1542    1511     799     798                
CQUAD4      1000       1    1524     787     786    1523                
CQUAD4      1001       1    1500    1501    1534    1533                
CQUAD4      1002       1    1501    1502    1535    1534                
CQUAD4      1003       1    1502    1503    1536    1535                
CQUAD4      1004       1    1503    1504    1537    1536                
CQUAD4      1005       1    1504    1505    1538    1537                
CQUAD4      1006       1    1505    1506    1539    1538                
CQUAD4      1007       1    1506    1507    1540    1539                
CQUAD4      1008       1    1507    1508    1810    1540                
CQUAD4      1009       1    1508    1509    1542    1541                
CQUAD4      1010       1    1509    1510    1511    1542                
CQUAD4      1011       1    1499    1500    1533    1522                
CQUAD4      1012       1    1522    1533    1532    1521                
CQUAD4      1013       1    1521    1532    1531    1520                
CQUAD4      1014       1    1520    1531    1530    1519                
CQUAD4      1015       1    1519    1530    1529    1518                
CQUAD4      1016       1    1518    1529    1528    1517                
$ ... 439 like lines cut
CTRIA3      1456       1    1802    1774    1773                        
CQUAD4      1457       1    1799    1800    1801    1802                
CQUAD4      1458       1    1798    1799    1802    1797                
CTRIA3      1459       1    1797    1802    1811                        
CQUAD4      1460       1    1801    1766    1767    1775                
CQUAD4      1461       1    1800    1765    1766    1801                
CQUAD4      1462       1    1763    1764    1765    1800                
CQUAD4      1463       1    1762    1763    1800    1799                
CQUAD4      1464       1    1761    1762    1799    1798                
CQUAD4      1465       1    1795    1797    1772    1771                
CQUAD4      1466       1    1796    1798    1797    1795                
CQUAD4      1467       1    1760    1761    1798    1796                
CQUAD4      1468       1    1793    1795    1771    1770                
CQUAD4      1469       1    1794    1796    1795    1793                
CQUAD4      1470       1    1759    1760    1796    1794                
CQUAD4      1471       1    1791    1793    1770    1769                
CQUAD4      1472       1    1792    1794    1793    1791                
CQUAD4      1473       1    1758    1759    1794    1792                
CQUAD4      1474       1    1789    1791    1769    1768                
CQUAD4      1475       1    1790    1792    1791    1789                
CQUAD4      1476       1    1757    1758    1792    1790                
CQUAD4      1477       1      33    1789    1768      34                
CQUAD4      1478       1      32    1790    1789      33                
CQUAD4      1479       1      31    1757    1790      32                
CQUAD4      1480       1    1766    1755    1756    1767                
CTRIA3      1481       1    1765    1755    1766                        
CQUAD4      1482       1    1767    1756    1077    1078                
CQUAD4      1483       1    1764    1754    1755    1765                
CQUAD4      1484       1    1741    1742    1754    1764                
CQUAD4      1485       1    1740    1741    1764    1763                
CQUAD4      1486       1    1739    1740    1763    1762                
CQUAD4      1487       1    1738    1739    1762    1761                
CQUAD4      1488       1    1737    1738    1761    1760                
CQUAD4      1489       1    1736    1737    1760    1759                
CQUAD4      1490       1    1735    1736    1759    1758                
CQUAD4      1491       1      30    1734    1757      31                
CQUAD4      1492       1    1734    1735    1758    1757                
CQUAD4      1493       1    1756    1807    1076    1077                
CQUAD4      1494       1    1755    1806    1807    1756                
CQUAD4      1495       1    1754    1803    1806    1755                
CQUAD4      1496       1    1807    1805    1075    1076                
CTRIA3      1497       1    1806    1805    1807                        
CQUAD4      1498       1    1803    1804    1805    1806                
CQUAD4      1499       1    1805    1753    1074    1075                
CQUAD4      1500       1    1804    1752    1753    1805                
CQUAD4      1501       1    1742    1743    1803    1754                
CQUAD4      1502       1    1743    1744    1804    1803                
CQUAD4      1503       1    1744    1745    1752    1804                
CQUAD4      1504       1    1752    1808    1073    1753                
CTRIA3      1505       1    1753    1073    1074                        
CQUAD4      1506       1    1808    1809    1072    1073                
CQUAD4      1507       1    1809    1751    1071    1072                
CQUAD4      1508       1    1745    1746    1808    1752                
CQUAD4      1509       1    1746    1747    1809    1808                
CQUAD4      1510       1    1747    1748    1751    1809                
CQUAD4      1511       1    1748    1749    1070    1751                
CTRIA3      1512       1    1751    1070    1071                        
CQUAD4      1513       1    1749    1750    1069    1070                
CQUAD4      1514       1    1750    1733    1068    1069                
CQUAD4      1515       1      28    1713    1734      29                
CTRIA3      1516       1      29    1734      30                        
CQUAD4      1517       1    1713    1714    1735    1734                
CQUAD4      1518       1    1714    1715    1736    1735                
CQUAD4      1519       1    1715    1716    1737    1736                
CQUAD4      1520       1    1716    1717    1738    1737                
CQUAD4      1521       1    1717    1718    1739    1738                
CQUAD4      1522       1    1718    1719    1740    1739                
CQUAD4      1523       1    1719    1720    1741    1740                
CQUAD4      1524       1    1720    1721    1742    1741                
CQUAD4      1525       1    1721    1722    1743    1742                
CQUAD4      1526       1    1722    1723    1744    1743                
CQUAD4      1527       1    1729    1730    1733    1750                
CQUAD4      1528       1    1728    1729    1750    1749                
CQUAD4      1529       1    1727    1728    1749    1748                
CQUAD4      1530       1    1726    1727    1748    1747                
CQUAD4      1531       1    1725    1726    1747    1746                
CQUAD4      1532       1    1724    1725    1746    1745                
CQUAD4      1533       1    1723    1724    1745    1744                
CQUAD4      1534       1    1730    1731    1067    1733                
CTRIA3      1535       1    1733    1067    1068                        
CQUAD4      1536       1    1731    1732    1066    1067                
CQUAD4      1537       1    1732     773     772    1066                
CQUAD4      1538       1    1695    1696    1716    1715                
CQUAD4      1539       1    1696    1697    1717    1716                
CQUAD4      1540       1    1697    1698    1718    1717                
CQUAD4      1541       1    1700    1701    1721    1720                
CQUAD4      1542       1    1699    1700    1720    1719                
CQUAD4      1543       1    1698    1699    1719    1718                
CQUAD4      1544       1    1694    1695    1715    1714                
CQUAD4      1545       1    1693    1694    1714    1713                
CQUAD4      1546       1      27    1693    1713      28                
CQUAD4      1547       1    1701    1702    1722    1721                
CQUAD4      1548       1    1702    1703    1723    1722                
CQUAD4      1549       1    1703    1704    1724    1723                
CQUAD4      1550       1    1707    1708    1728    1727                
CQUAD4      1551       1    1706    1707    1727    1726                
CQUAD4      1552       1    1705    1706    1726    1725                
CQUAD4      1553       1    1704    1705    1725    1724                
CQUAD4      1554       1    1710    1711    1731    1730                
CQUAD4      1555       1    1709    1710    1730    1729                
$ ... 158 like lines cut
CTRIA3      1714       1    1812    1564    1553                        
CTRIA3      1715       1    1797    1811    1772                        
CTRIA3      1716       1    1548    1812    1553                        
CQUAD4      1743       1    1957    1958    1962    1961                
CQUAD4      1744       1    1961    1962    1959    1960                
CQUAD4      1745       1    1962    1955    1956    1959                
CQUAD4      1746       1    1958    1954    1955    1962                
CQUAD4      1747       1    1950    1957    1961    1949                
CQUAD4      1748       1    1949    1961    1960    1948                
CQUAD4      1749       1    1959    1956    1951    1952                
CQUAD4      1750       1    1960    1959    1952    1953                
CQUAD4      1751       1    1948    1960    1953    1947                
CQUAD4      1752       1    1936    1937    1954    1958                
CQUAD4      1753       1    1935    1936    1958    1957                
CQUAD4      1754       1    1934    1935    1957    1950                
CQUAD4      1755       1    1954    1943    1944    1955                
CQUAD4      1756       1    1955    1944    1945    1956                
CQUAD4      1757       1    1956    1945    1946    1951                
CQUAD4      1758       1    1937    1938    1943    1954                
CQUAD4      1759       1    1952    1951    1869    1870                
CQUAD4      1760       1    1953    1952    1870    1871                
CQUAD4      1761       1    1947    1953    1871    1872                
CQUAD4      1762       1    1951    1946    1868    1869                
$ ... 318 like lines cut
ENDDATA 9af8050c
