INIT MASTER(S)
NASTRAN SYSTEM(442)=-1,SYSTEM(319)=1
ID FFinalM,FEMAP
SOL SESTATIC
CEND
  TITLE = Simcenter Nastran Static Analysis Set
  ECHO = NONE
  DISPLACEMENT(PLOT) = ALL
  SPCFORCE(PLOT) = ALL
  OLOAD(PLOT) = ALL
  FORCE(PLOT,CORNER) = ALL
  STRESS(PLOT,CORNER) = ALL
  SPC = 1
  LOAD = 1
BEGIN BULK
$ ***************************************************************************
$   Written by : Femap
$   Version    : 2412.0
$   Translator : Simcenter Nastran
$   From Model : C:\Documents\Grad_School\!AE_Masters_Project\AE_Masters_Project\Nastran\!FinalModels\CompoundTensionStrip2\PyDFEM\CQ4\CompoundTensionStripCQ4_10.modfem
$   Date       : Sun Nov 23 16:52:11 2025
$   Output To  : C:\Documents\Grad_School\!AE_Masters_Project\AE_Masters_Project\Nastran\!FinalModels\CompoundTensionStrip2\PyDFEM\CQ4\
$ ***************************************************************************
$
PARAM,PRGPST,NO
PARAM,POST,0
PARAM,OGEOM,NO
PARAM,AUTOSPC,YES
PARAM,K6ROT,100.
PARAM,GRDPNT,0
CORD2C         1       0      0.      0.      0.      0.      0.      1.+FEMAPC1
+FEMAPC1      1.      0.      1.        
CORD2S         2       0      0.      0.      0.      0.      0.      1.+FEMAPC2
+FEMAPC2      1.      0.      1.        
$ Femap Load Set 1 : Untitled
FORCE          1    1026       0      1.71.42857      0.      0.
FORCE          1    1027       0      1.142.8571      0.      0.
FORCE          1    1028       0      1.142.8571      0.      0.
FORCE          1    1029       0      1.142.8571      0.      0.
FORCE          1    1030       0      1.142.8571      0.      0.
FORCE          1    1031       0      1.142.8571      0.      0.
FORCE          1    1032       0      1.142.8571      0.      0.
FORCE          1    1033       0      1.71.42857      0.      0.
$ Femap Constraint Set 1 : Untitled
SPC1           1       2       1
SPC1           1       1      55
SPC1           1       1      56
SPC1           1       1      57
SPC1           1       1      58
SPC1           1       1      59
SPC1           1       1      60
SPC1           1       1      61
SPC1           1       1      62
SPC1           1       1      63
SPC1           1       1      64
SPC1           1       1      65
SPC1           1  123456      66
SPC1           1       2      67
SPC1           1       2      68
SPC1           1       2      69
SPC1           1       2      70
SPC1           1       2      71
SPC1           1       2      72
SPC1           1       2      73
$ ... 86 like lines cut
$ Femap Property 1 : MEMBRANE Property
PSHELL         1       1     .25                                      0.
$ Femap Material 1 : 2024-T351 Al Plate: t = 0.25 to 0.5 inches
MAT1           1  1.07+7             .332.5906-4 1.255-5     70.        +       
+         42000.  40000.  38000.
MAT4           1.0016435  83.0762.5906-4                        
GRID           1       06.499987      0.      0.       0
GRID           2       06.499987.1022725      0.       0
GRID           3       06.499987 .204545      0.       0
GRID           4       06.499987.3068176      0.       0
GRID           5       06.499987.4090901      0.       0
GRID           6       06.499987.5113626      0.       0
GRID           7       06.499987.6136351      0.       0
GRID           8       06.499987.7159077      0.       0
GRID           9       06.499987.8181802      0.       0
GRID          10       06.499987.9204527      0.       0
GRID          11       06.4999871.022725      0.       0
GRID          12       06.4999871.124998      0.       0
GRID          13       06.499987 1.22727      0.       0
GRID          14       06.4999871.329543      0.       0
GRID          15       06.4999871.431815      0.       0
GRID          16       06.4999871.534088      0.       0
GRID          17       06.499987 1.63636      0.       0
GRID          18       06.4999871.738633      0.       0
GRID          19       06.4999871.840905      0.       0
GRID          20       06.4999871.943178      0.       0
$ ... 1238 like lines cut
CQUAD4         1       1     256     247     248     258                
CQUAD4         2       1     255     256     258     257                
CQUAD4         3       1     258     248     249     259                
CQUAD4         4       1     257     258     259     251                
CQUAD4         5       1     259     249     250     251                
CQUAD4         6       1     254     255     257     253                
CQUAD4         7       1     253     257     251     252                
CQUAD4         8       1     239     240     247     256                
CQUAD4         9       1     238     239     256     255                
CQUAD4        10       1     237     238     255     254                
CQUAD4        11       1     220     253     252     219                
CQUAD4        12       1     221     254     253     220                
CQUAD4        13       1     222     237     254     221                
CQUAD4        14       1     304     219     246     218                
CQUAD4        15       1     219     252     245     246                
CQUAD4        16       1     251     250     244     580                
CQUAD4        17       1     240     230     231     247                
CQUAD4        18       1     247     231     232     248                
CQUAD4        19       1     248     232     233     249                
CQUAD4        20       1     250     234     235     244                
$ ... 757 like lines cut
CTRIA3       778       1     968     710     711                        
CQUAD4       779       1     950     942     709     710                
CQUAD4       780       1     937     938     942     950                
CQUAD4       781       1     936     937     950     949                
CQUAD4       782       1     935     936     949     948                
CQUAD4       783       1     934     935     948     947                
CQUAD4       784       1     933     934     947     946                
CQUAD4       785       1     932     933     946     945                
CQUAD4       786       1     931     932     945     944                
CQUAD4       787       1     930     931     944     943                
CQUAD4       788       1      17     930     943      18                
CQUAD4       789       1     938     939     969     942                
CQUAD4       790       1     942     969     708     709                
CQUAD4       791       1     939     940     707     969                
CTRIA3       792       1     969     707     708                        
CQUAD4       793       1     940     941     706     707                
CQUAD4       794       1     941     624     623     706                
CQUAD4       795       1     922     923     935     934                
CQUAD4       796       1     921     922     934     933                
CQUAD4       797       1     920     921     933     932                
CQUAD4       798       1     924     925     937     936                
CQUAD4       799       1     923     924     936     935                
CQUAD4       800       1     919     920     932     931                
CQUAD4       801       1     918     919     931     930                
CQUAD4       802       1      16     918     930      17                
CQUAD4       803       1     928     929     941     940                
CQUAD4       804       1     927     928     940     939                
CQUAD4       805       1     926     927     939     938                
CQUAD4       806       1     925     926     938     937                
CQUAD4       807       1     929     625     624     941                
CQUAD4       808       1     907     908     920     919                
CQUAD4       809       1     908     909     921     920                
CQUAD4       810       1     909     910     922     921                
CQUAD4       811       1     911     912     924     923                
CQUAD4       812       1     910     911     923     922                
$ ... 87 like lines cut
CTRIA3       900       1     746     730     747                        
CQUAD4       901       1     730     703     704     747                
CQUAD4       902       1     728     729     745     744                
CQUAD4       903       1     978     745     762     881                
CTRIA3       904       1     979     956     967                        
CTRIA3       905       1     979     947     956                        
CQUAD4       921       1     596    1066    1065     597                
CQUAD4       922       1     595    1067    1066     596                
CQUAD4       923       1     594    1068    1067     595                
CQUAD4       924       1     593    1069    1068     594                
CQUAD4       925       1     982    1070    1069     593                
CQUAD4       926       1     981    1071    1070     982                
CQUAD4       927       1     980     994    1071     981                
CQUAD4       928       1    1066    1072    1064    1065                
CQUAD4       929       1    1067    1073    1072    1066                
CQUAD4       930       1    1068    1074    1073    1067                
CQUAD4       931       1    1069    1075    1074    1068                
CQUAD4       932       1    1070    1076    1075    1069                
CQUAD4       933       1    1071    1077    1076    1070                
CQUAD4       934       1     994     995    1077    1071                
CQUAD4       935       1    1072    1078    1063    1064                
CQUAD4       936       1    1073    1079    1078    1072                
CQUAD4       937       1    1074    1080    1079    1073                
CQUAD4       938       1    1075    1081    1080    1074                
CQUAD4       939       1    1076    1082    1081    1075                
CQUAD4       940       1    1077    1083    1082    1076                
$ ... 226 like lines cut
ENDDATA 7473c5a5
