INIT MASTER(S)
NASTRAN SYSTEM(442)=-1,SYSTEM(319)=1
ID MixedEl,FEMAP
SOL SESTATIC
CEND
  TITLE = Simcenter Nastran Static Analysis Set
  ECHO = NONE
  DISPLACEMENT(PLOT) = ALL
  SPCFORCE(PLOT) = ALL
  OLOAD(PLOT) = ALL
  FORCE(PLOT,CORNER) = ALL
  STRESS(PLOT,CORNER) = ALL
  SPC = 1
  LOAD = 1
BEGIN BULK
$ ***************************************************************************
$   Written by : Femap
$   Version    : 2412.0
$   Translator : Simcenter Nastran
$   From Model : C:\Documents\Grad_School\!AE_Masters_Project\AE_Masters_Project\Nastran\MixedElementModel\MixedTensionStrip\MixedTensionStrip_FEMAP_Rotated.modfem
$   Date       : Tue Dec  2 20:03:36 2025
$   Output To  : C:\Documents\Grad_School\!AE_Masters_Project\AE_Masters_Project\Nastran\MixedElementModel\MixedTensionStrip\
$ ***************************************************************************
$
PARAM,PRGPST,NO
PARAM,POST,0
PARAM,OGEOM,NO
PARAM,AUTOSPC,YES
PARAM,K6ROT,100.
PARAM,GRDPNT,0
CORD2C         1       0      0.      0.      0.      0.      0.      1.+FEMAPC1
+FEMAPC1      1.      0.      1.        
CORD2S         2       0      0.      0.      0.      0.      0.      1.+FEMAPC2
+FEMAPC2      1.      0.      1.        
$ Femap Load Set 1 : Untitled
FORCE          1      58       0      1.      0.208.3333      0.
FORCE          1      59       0      1.      0.416.6667      0.
FORCE          1      60       0      1.      0.416.6667      0.
FORCE          1      61       0      1.      0.416.6667      0.
FORCE          1      62       0      1.      0.416.6667      0.
FORCE          1      63       0      1.      0.416.6667      0.
FORCE          1      64       0      1.      0.416.6667      0.
FORCE          1      65       0      1.      0.416.6667      0.
FORCE          1      66       0      1.      0.208.3333      0.
FORCE          1     151       0      1.      0.833.3333      0.
FORCE          1     154       0      1.      0.833.3333      0.
FORCE          1     156       0      1.      0.833.3333      0.
FORCE          1     158       0      1.      0.833.3333      0.
FORCE          1     160       0      1.      0.833.3333      0.
FORCE          1     162       0      1.      0.833.3333      0.
FORCE          1     164       0      1.      0.833.3333      0.
FORCE          1     166       0      1.      0.833.3333      0.
$ Femap Constraint Set 1 : Untitled
SPC1           1       2       1
SPC1           1       2       2
SPC1           1       2       3
SPC1           1       2       4
SPC1           1  123456       5
SPC1           1       2       6
SPC1           1       2       7
SPC1           1       2       8
SPC1           1       2       9
$ Femap Property 1 : MEMBRANE Property
PSHELL         1       1     .25                                      0.
$ Femap Material 1 : 2024-T351 Al Plate: t = 0.25 to 0.5 inches
MAT1           1  1.07+7             .332.5906-4 1.255-5     70.        +       
+         42000.  40000.  38000.
MAT4           1.0016435  83.0762.5906-4                        
GRID           1       0      0.      0.      0.       0
GRID           2       0     .25      0.      0.       0
GRID           3       0      .5      0.      0.       0
GRID           4       0     .75      0.      0.       0
GRID           5       0      1.      0.      0.       0
GRID           6       0    1.25      0.      0.       0
GRID           7       0     1.5      0.      0.       0
GRID           8       0    1.75      0.      0.       0
GRID           9       0      2.      0.      0.       0
GRID          10       0      2.     .25      0.       0
GRID          11       0      2.      .5      0.       0
GRID          12       0      2.     .75      0.       0
GRID          13       0      2.      1.      0.       0
GRID          14       0    1.75      1.      0.       0
GRID          15       0     1.5      1.      0.       0
GRID          16       0    1.25      1.      0.       0
GRID          17       0      1.      1.      0.       0
GRID          18       0     .75      1.      0.       0
GRID          19       0      .5      1.      0.       0
GRID          20       0     .25      1.      0.       0
$ ... 149 like lines cut
CQUAD4         1       1       1       2      25      24                
CQUAD4         2       1       2       3      26      25                
CQUAD4         3       1       3       4      27      26                
CQUAD4         4       1       4       5      28      27                
CQUAD4         5       1       5       6      29      28                
CQUAD4         6       1       6       7      30      29                
CQUAD4         7       1       7       8      31      30                
CQUAD4         8       1       8       9      10      31                
CQUAD4         9       1      24      25      32      23                
CQUAD4        10       1      25      26      33      32                
CQUAD4        11       1      26      27      34      33                
CQUAD4        12       1      27      28      35      34                
CQUAD4        13       1      28      29      36      35                
CQUAD4        14       1      29      30      37      36                
CQUAD4        15       1      30      31      38      37                
CQUAD4        16       1      31      10      11      38                
CQUAD4        17       1      23      32      39      22                
CQUAD4        18       1      32      33      40      39                
CQUAD4        19       1      33      34      41      40                
CQUAD4        20       1      34      35      42      41                
$ ... 12 like lines cut
CQUAD8        33       1      21      20      70      69      91      92+       
+             93      94                                                
CQUAD8        34       1      20      19      71      70      95      96+       
+             97      92                                                
CQUAD8        35       1      19      18      72      71      98      99+       
+            100      96                                                
CQUAD8        36       1      18      17      73      72     101     102+       
+            103      99                                                
CQUAD8        37       1      17      16      74      73     104     105+       
+            106     102                                                
CQUAD8        38       1      16      15      75      74     107     108+       
+            109     105                                                
CQUAD8        39       1      15      14      76      75     110     111+       
+            112     108                                                
CQUAD8        40       1      14      13      55      76     113     114+       
+            115     111                                                
CQUAD8        41       1      69      70      77      68      93     116+       
+            117     118                                                
CQUAD8        42       1      70      71      78      77      97     119+       
+            120     116                                                
CQUAD8        43       1      71      72      79      78     100     121+       
+            122     119                                                
CQUAD8        44       1      72      73      80      79     103     123+       
+            124     121                                                
CQUAD8        45       1      73      74      81      80     106     125+       
+            126     123                                                
CQUAD8        46       1      74      75      82      81     109     127+       
+            128     125                                                
CQUAD8        47       1      75      76      83      82     112     129+       
+            130     127                                                
CQUAD8        48       1      76      55      56      83     115     131+       
+            132     129                                                
CQUAD8        49       1      68      77      84      67     117     133+       
+            134     135                                                
CQUAD8        50       1      77      78      85      84     120     136+       
+            137     133                                                
CQUAD8        51       1      78      79      86      85     122     138+       
+            139     136                                                
CQUAD8        52       1      79      80      87      86     124     140+       
+            141     138                                                
$ ... 24 like lines cut
CQUAD4        65       1     169     167      20      91                
CQUAD4        66       1      22     169      91      21                
CQUAD4        67       1      40      19      95     172                
CQUAD4        68       1     167     172      95      20                
CQUAD4        69       1     175     173      18      98                
CQUAD4        70       1      40     175      98      19                
CQUAD4        71       1      42      17     101     178                
CQUAD4        72       1     173     178     101      18                
CQUAD4        73       1     181     179      16     104                
CQUAD4        74       1      42     181     104      17                
CQUAD4        75       1      44      15     107     184                
CQUAD4        76       1     179     184     107      16                
CQUAD4        77       1     187     185      14     110                
CQUAD4        78       1      44     187     110      15                
CQUAD4        79       1      12      13     113     190                
CQUAD4        80       1     185     190     113      14                
ENDDATA c401e5c8
