INIT MASTER(S)
NASTRAN SYSTEM(442)=-1,SYSTEM(319)=1
ID FFinalM,FEMAP
SOL SESTATIC
CEND
  TITLE = Simcenter Nastran Static Analysis Set
  ECHO = NONE
  DISPLACEMENT(PLOT) = ALL
  SPCFORCE(PLOT) = ALL
  OLOAD(PLOT) = ALL
  FORCE(PLOT,CORNER) = ALL
  STRESS(PLOT,CORNER) = ALL
  SPC = 1
  LOAD = 1
BEGIN BULK
$ ***************************************************************************
$   Written by : Femap
$   Version    : 2412.0
$   Translator : Simcenter Nastran
$   From Model : C:\Documents\Grad_School\!AE_Masters_Project\AE_Masters_Project\Nastran\!FinalModels\CompoundTensionStrip2\AVFEM\CompoundTensionStrip2_AVFEM.modfem
$   Date       : Fri Nov 21 12:44:30 2025
$   Output To  : C:\Documents\Grad_School\!AE_Masters_Project\AE_Masters_Project\Nastran\!FinalModels\CompoundTensionStrip2\AVFEM\
$ ***************************************************************************
$
PARAM,PRGPST,NO
PARAM,POST,0
PARAM,OGEOM,NO
PARAM,AUTOSPC,YES
PARAM,K6ROT,100.
PARAM,GRDPNT,0
CORD2C         1       0      0.      0.      0.      0.      0.      1.+FEMAPC1
+FEMAPC1      1.      0.      1.        
CORD2S         2       0      0.      0.      0.      0.      0.      1.+FEMAPC2
+FEMAPC2      1.      0.      1.        
$ Femap Load Set 1 : Untitled
FORCE          1      46       0      1.   2500.      0.      0.
FORCE          1      59       0      1.   2500.      0.      0.
FORCE          1      60       0      1.   5000.      0.      0.
$ Femap Constraint Set 1 : Untitled
SPC1           1       2       1
SPC1           1       2      53
SPC1           1       2      54
SPC1           1       2      55
SPC1           1       2      56
SPC1           1       2      57
SPC1           1       2      58
SPC1           1       2      59
SPC1           1  123456      67
SPC1           1       2      68
SPC1           1       2      69
SPC1           1       2      70
SPC1           1       2      71
SPC1           1       2      72
SPC1           1       2      73
SPC1           1       2      74
SPC1           1       2      75
SPC1           1       2      76
SPC1           1       2      77
SPC1           1       2      78
$ ... 10 like lines cut
$ Femap Property 1 : MEMBRANE Property
PSHELL         1       1     .25                                      0.
$ Femap Material 1 : 2024-T351 Al Plate: t = 0.25 to 0.5 inches
MAT1           1  1.07+7             .332.5906-4 1.255-5     70.        +       
+         42000.  40000.  38000.
MAT4           1.0016435  83.0762.5906-4                        
GRID           1       0   5.684      0.      0.       0
GRID           2       0   5.684    .364      0.       0
GRID           3       0   5.684    .728      0.       0
GRID          46       0      8.    .728      0.       0
GRID          47       07.669143    .728      0.       0
GRID          48       07.338286    .728      0.       0
GRID          49       07.007429    .728      0.       0
GRID          50       06.676571    .728      0.       0
GRID          51       06.345714    .728      0.       0
GRID          52       06.014857    .728      0.       0
GRID          53       06.014857      0.      0.       0
GRID          54       06.345714      0.      0.       0
GRID          55       06.676571      0.      0.       0
GRID          56       07.007429      0.      0.       0
GRID          57       07.338286      0.      0.       0
GRID          58       07.669143      0.      0.       0
GRID          59       0      8.      0.      0.       0
GRID          60       0      8.    .364      0.       0
GRID          61       07.669143    .364      0.       0
GRID          62       07.338286    .364      0.       0
$ ... 117 like lines cut
CQUAD4        29       1      46      47      61      60                
CQUAD4        30       1      47      48      62      61                
CQUAD4        31       1      48      49      63      62                
CQUAD4        32       1      49      50      64      63                
CQUAD4        33       1      50      51      65      64                
CQUAD4        34       1      51      52      66      65                
CQUAD4        35       1      52       3       2      66                
CQUAD4        36       1      60      61      58      59                
CQUAD4        37       1      61      62      57      58                
CQUAD4        38       1      62      63      56      57                
CQUAD4        39       1      63      64      55      56                
CQUAD4        40       1      64      65      54      55                
CQUAD4        41       1      65      66      53      54                
CQUAD4        42       1      66       2       1      53                
CQUAD4        43       1      67      68     101     100                
CQUAD4        44       1      68      69     102     101                
CQUAD4        45       1      69      70     103     102                
CQUAD4        46       1      70      71     104     103                
CQUAD4        47       1      71      72     105     104                
CQUAD4        48       1      72      73     106     105                
$ ... 88 like lines cut
ENDDATA ad642c4e
