INIT MASTER(S)
NASTRAN SYSTEM(442)=-1,SYSTEM(319)=1
ID FFinalM,FEMAP
SOL SESTATIC
CEND
  TITLE = Simcenter Nastran Static Analysis Set
  ECHO = NONE
  DISPLACEMENT(PLOT) = ALL
  SPCFORCE(PLOT) = ALL
  OLOAD(PLOT) = ALL
  FORCE(PLOT,CORNER) = ALL
  STRESS(PLOT,CORNER) = ALL
  SPC = 1
  LOAD = 1
BEGIN BULK
$ ***************************************************************************
$   Written by : Femap
$   Version    : 2412.0
$   Translator : Simcenter Nastran
$   From Model : C:\Documents\Grad_School\!AE_Masters_Project\AE_Masters_Project\Nastran\!FinalModels\CompoundTensionStrip2\DFEM\TensionStripDFEM.modfem
$   Date       : Sun Nov 23 15:10:12 2025
$   Output To  : C:\Documents\Grad_School\!AE_Masters_Project\AE_Masters_Project\Nastran\!FinalModels\CompoundTensionStrip2\DFEM\
$ ***************************************************************************
$
PARAM,PRGPST,NO
PARAM,POST,0
PARAM,OGEOM,NO
PARAM,AUTOSPC,YES
PARAM,K6ROT,100.
PARAM,GRDPNT,0
CORD2C         1       0      0.      0.      0.      0.      0.      1.+FEMAPC1
+FEMAPC1      1.      0.      1.        
CORD2S         2       0      0.      0.      0.      0.      0.      1.+FEMAPC2
+FEMAPC2      1.      0.      1.        
$ Femap Load Set 1 : Untitled
FORCE          1     620       0      1.71.42857      0.      0.
FORCE          1     621       0      1.142.8571      0.      0.
FORCE          1     622       0      1.142.8571      0.      0.
FORCE          1     623       0      1.142.8571      0.      0.
FORCE          1     624       0      1.142.8571      0.      0.
FORCE          1     625       0      1.142.8571      0.      0.
FORCE          1     626       0      1.142.8571      0.      0.
FORCE          1     627       0      1.71.42857      0.      0.
$ Femap Constraint Set 1 : Untitled
SPC1           1       2      83
SPC1           1       1     126
SPC1           1       1     127
SPC1           1       1     128
SPC1           1       1     129
SPC1           1       1     130
SPC1           1       1     131
SPC1           1       1     132
SPC1           1       1     133
SPC1           1       1     134
SPC1           1       1     135
SPC1           1       1     136
SPC1           1  123456     137
SPC1           1       2     138
SPC1           1       2     139
SPC1           1       2     140
SPC1           1       2     141
SPC1           1       2     142
SPC1           1       2     143
SPC1           1       2     144
$ ... 57 like lines cut
$ Femap Property 1 : MEMBRANE Property
PSHELL         1       1     .25                                      0.
$ Femap Material 1 : 2024-T351 Al Plate: t = 0.25 to 0.5 inches
MAT1           1  1.07+7             .332.5906-4 1.255-5     70.        +       
+         42000.  40000.  38000.
MAT4           1.0016435  83.0762.5906-4                        
GRID           1       0   8.434    .328      0.       0
GRID           2       0   8.534    .328      0.       0
GRID           3       0   8.634    .328      0.       0
GRID           4       0   8.734    .328      0.       0
GRID           5       0   8.834    .328      0.       0
GRID           6       0   8.834.4279996      0.       0
GRID           7       0   8.834.5279993      0.       0
GRID           8       0   8.834.6279989      0.       0
GRID           9       0   8.834.7279985      0.       0
GRID          10       08.733996.7279985      0.       0
GRID          11       08.633992.7279985      0.       0
GRID          12       08.533987.7279985      0.       0
GRID          13       08.433983.7279985      0.       0
GRID          14       08.338312.7470286      0.       0
GRID          15       08.257207.8012217      0.       0
GRID          16       08.203014.8823274      0.       0
GRID          17       08.183984 .977998      0.       0
GRID          18       08.1839841.112498      0.       0
GRID          19       08.1839841.246998      0.       0
GRID          20       08.1839841.381497      0.       0
$ ... 802 like lines cut
CQUAD4         1       1      66      59      60      67                
CQUAD4         2       1      65      66      67      64                
CQUAD4         3       1      67      60      61      64                
CQUAD4         4       1      36      37      66      65                
CQUAD4         5       1      37      38      59      66                
CQUAD4         6       1      64      61      62      63                
CQUAD4         7       1      63      62      14      15                
CQUAD4         8       1      69      65      64      70                
CQUAD4         9       1      69      70      71      68                
CQUAD4        10       1      68      71      57      58                
CQUAD4        11       1      70      64      63      71                
CQUAD4        12       1      71      63      56      57                
CQUAD4        13       1      35      69      68      34                
CQUAD4        14       1      36      65      69      35                
CQUAD4        15       1      34      68      58      33                
CQUAD4        16       1      63      15      16      56                
CQUAD4        17       1      72      53      54      73                
CQUAD4        18       1      59      72      73      60                
CQUAD4        19       1      60      73      74      61                
CQUAD4        20       1      61      74      55      62                
$ ... 22 like lines cut
CTRIA3        43       1      79      80      81                        
CQUAD4        44       1      80      20      21      22                
CQUAD4        45       1      29      77      79      28                
CQUAD4        46       1      77      78      80      79                
CQUAD4        47       1      78      19      20      80                
CQUAD4        48       1      30      50      77      29                
CQUAD4        49       1      50      49      78      77                
CQUAD4        50       1      49      18      19      78                
CQUAD4        51       1      47      44      45      48                
CQUAD4        52       1      46      43      44      47                
CQUAD4        53       1       2       3      43      46                
CQUAD4        54       1      48      45      11      12                
CQUAD4        55       1      45      42      10      11                
CQUAD4        56       1      44      41      42      45                
CQUAD4        57       1      43      40      41      44                
CQUAD4        58       1       3       4      40      43                
CQUAD4        59       1      41       7       8      42                
CQUAD4        60       1      40       6       7      41                
CQUAD4        61       1       4       5       6      40                
CQUAD4        62       1      42       8       9      10                
CQUAD4        63       1     168      83      84     169                
$ ... 458 like lines cut
CTRIA3       522       1     574     575     596                        
CQUAD4       523       1     505     504     575     574                
CQUAD4       524       1     506     505     574     573                
CQUAD4       525       1     507     506     573     572                
CQUAD4       526       1     509     508     571     570                
CQUAD4       527       1     510     509     570     569                
CQUAD4       528       1      89     510     569      90                
CQUAD4       529       1     508     507     572     571                
CQUAD4       530       1     575      28      27     596                
CQUAD4       531       1     573     574     597     580                
CQUAD4       532       1     597     574     581     599                
CQUAD4       533       1     580     597     599     592                
CQUAD4       534       1     592     599     598     593                
CQUAD4       535       1     599     581     483     598                
CQUAD4       536       1     593     598     483     484                
CQUAD4       537       1     699     698     646     647                
CQUAD4       538       1     696     697     698     699                
CQUAD4       539       1     683     696     699     682                
CQUAD4       540       1     682     699     647     648                
CQUAD4       541       1     698     695     645     646                
CQUAD4       542       1     697     694     695     698                
$ ... 192 like lines cut
ENDDATA d2c2904a
