INIT MASTER(S)
NASTRAN SYSTEM(442)=-1,SYSTEM(319)=1
ID FFinalM,FEMAP
SOL SESTATIC
CEND
  TITLE = Simcenter Nastran Static Analysis Set
  ECHO = NONE
  DISPLACEMENT(PLOT) = ALL
  SPCFORCE(PLOT) = ALL
  OLOAD(PLOT) = ALL
  FORCE(PLOT,CORNER) = ALL
  STRESS(PLOT,CORNER) = ALL
  SPC = 1
  LOAD = 1
BEGIN BULK
$ ***************************************************************************
$   Written by : Femap
$   Version    : 2412.0
$   Translator : Simcenter Nastran
$   From Model : C:\Documents\Grad_School\!AE_Masters_Project\AE_Masters_Project\Nastran\!FinalModels\CompoundTensionStrip\DFEM\CompoundTensionStripDFEM_CQ4_14.modfem
$   Date       : Thu Nov 20 21:38:23 2025
$   Output To  : C:\Documents\Grad_School\!AE_Masters_Project\AE_Masters_Project\Nastran\!FinalModels\CompoundTensionStrip\DFEM\
$ ***************************************************************************
$
PARAM,PRGPST,NO
PARAM,POST,0
PARAM,OGEOM,NO
PARAM,AUTOSPC,YES
PARAM,K6ROT,100.
PARAM,GRDPNT,0
CORD2C         1       0      0.      0.      0.      0.      0.      1.+FEMAPC1
+FEMAPC1      1.      0.      1.        
CORD2S         2       0      0.      0.      0.      0.      0.      1.+FEMAPC2
+FEMAPC2      1.      0.      1.        
$ Femap Coordinate System 3 : Rectangular Coordinate System
CORD2R         3       0  7.1375    .525      0.  7.1375    .525     -1.+       
+       8.113687.3080695      0.        
$ Femap Load Set 1 : Untitled
FORCE          1    2948       0      1.    125.      0.      0.
FORCE          1    2949       0      1.    250.      0.      0.
FORCE          1    2950       0      1.    250.      0.      0.
FORCE          1    2951       0      1.    250.      0.      0.
FORCE          1    2952       0      1.    125.      0.      0.
$ Femap Constraint Set 1 : Untitled
SPC1           1  123456     287
SPC1           1       2     288
SPC1           1       2     289
SPC1           1       2     290
SPC1           1       2     291
SPC1           1       2     292
SPC1           1       2     293
SPC1           1       2     294
SPC1           1       2     295
SPC1           1       2     296
SPC1           1       2     297
SPC1           1       2     298
SPC1           1       2     299
SPC1           1       2     300
SPC1           1       2     301
SPC1           1       2     302
SPC1           1       2     303
SPC1           1       2     304
SPC1           1       2     305
SPC1           1       2     306
$ ... 78 like lines cut
$ Femap Property 1 : PLATE Property
PSHELL         1       1     .25       1               1              0.
$ Femap Material 1 : 2024-T351 Al Plate: t = 0.25 to 0.5 inches
MAT1           1  1.07+7             .332.5906-4 1.255-5     70.        +       
+         42000.  40000.  38000.
MAT4           1.0016435  83.0762.5906-4                        
GRID         287       0      0.      0.      0.       0
GRID         288       0.1515152      0.      0.       0
GRID         289       0.3030303      0.      0.       0
GRID         290       0.4545455      0.      0.       0
GRID         291       0.6060606      0.      0.       0
GRID         292       0.7575758      0.      0.       0
GRID         293       0.9090909      0.      0.       0
GRID         294       01.060606      0.      0.       0
GRID         295       01.212121      0.      0.       0
GRID         296       01.363636      0.      0.       0
GRID         297       01.515152      0.      0.       0
GRID         298       01.666667      0.      0.       0
GRID         299       01.818182      0.      0.       0
GRID         300       01.969697      0.      0.       0
GRID         301       02.121212      0.      0.       0
GRID         302       02.272727      0.      0.       0
GRID         303       02.424242      0.      0.       0
GRID         304       02.575758      0.      0.       0
GRID         305       02.727273      0.      0.       0
GRID         306       02.878788      0.      0.       0
$ ... 744 like lines cut
CQUAD4       145       1     287     288     367     366                
CQUAD4       146       1     288     289     368     367                
CQUAD4       147       1     289     290     369     368                
CQUAD4       148       1     290     291     370     369                
CQUAD4       149       1     291     292     371     370                
CQUAD4       150       1     292     293     372     371                
CQUAD4       151       1     293     294     373     372                
CQUAD4       152       1     294     295     374     373                
CQUAD4       153       1     295     296     375     374                
CQUAD4       154       1     296     297     376     375                
CQUAD4       155       1     297     298     377     376                
CQUAD4       156       1     298     299     378     377                
CQUAD4       157       1     299     300     379     378                
CQUAD4       158       1     300     301     380     379                
CQUAD4       159       1     301     302     381     380                
CQUAD4       160       1     302     303     382     381                
CQUAD4       161       1     303     304     383     382                
CQUAD4       162       1     304     305     384     383                
CQUAD4       163       1     305     306     385     384                
CQUAD4       164       1     306     307     386     385                
$ ... 432 like lines cut
CTRIA3      3993       1    6585    6604    6582                        
CQUAD4      3994       1    6575    6163    6164    6604                
CQUAD4      3995       1    6583    6166    6167    6567                
CQUAD4      3996       1    6585    6582    6583    6584                
CQUAD4      3997       1    6573    6585    6584    6574                
CQUAD4      3998       1    6584    6583    6567    6566                
CQUAD4      3999       1    6574    6584    6566    6565                
CQUAD4      4000       1    6589    6587    6564    6563                
CQUAD4      4001       1    6571    6589    6563    6562                
CQUAD4      4002       1    6571    6588    6587    6589                
CQUAD4      4003       1    6570    6586    6588    6571                
CQUAD4      4004       1    6587    6574    6565    6564                
CQUAD4      4005       1    6588    6573    6574    6587                
CQUAD4      4006       1    6586    6572    6573    6588                
CQUAD4      4007       1    6557    6556    6586    6570                
CQUAD4      4008       1    6556    6555    6572    6586                
CQUAD4      4009       1    6569    6571    6562    6561                
CQUAD4      4010       1    6568    6570    6571    6569                
CQUAD4      4011       1    6558    6557    6570    6568                
CQUAD4      4012       1     569    6569    6561     568                
CQUAD4      4013       1     570    6568    6569     569                
$ ... 6 like lines cut
CTRIA3      4020       1    6599     765    6554                        
CQUAD4      4021       1    6598    6169     765    6599                
CQUAD4      4022       1    6596    6597    6600    6613                
CQUAD4      4023       1    6592    6596    6613    6553                
CQUAD4      4024       1    6566    6567    6593    6594                
CQUAD4      4025       1    6565    6566    6594    6595                
CQUAD4      4026       1    6564    6565    6595    6591                
CQUAD4      4027       1    6567    6167    6168    6593                
CQUAD4      4028       1    6602    6591    6592    6603                
CQUAD4      4029       1    6603    6592    6553    6560                
CQUAD4      4030       1    6601    6602    6603    6560                
CQUAD4      4031       1    6562    6563    6602    6601                
CQUAD4      4032       1    6563    6564    6591    6602                
CQUAD4      4033       1    6590    6601    6560    6559                
CQUAD4      4034       1    6561    6562    6601    6590                
CQUAD4      4035       1     567    6590    6559     566                
CQUAD4      4036       1     568    6561    6590     567                
CQUAD4      4037       1    6604    6164    6165    6582                
CQUAD4      4038       1    6605    6577    6578    6607                
CQUAD4      4039       1    6607    6578    6575    6606                
CQUAD4      4040       1    6573    6607    6606    6585                
$ ... 10 like lines cut
CTRIA3      4051       1    6613    6600    6554                        
CTRIA3      4052       1    6600    6599    6554                        
CTRIA3      4053       1    6613    6554    6553                        
CQUAD4      4054       1    4188    6614    4201    1759                
CQUAD4      4055       1    4189    6615    6614    4188                
CQUAD4      4056       1    4190    6616    6615    4189                
CQUAD4      4057       1    4191    6617    6616    4190                
CQUAD4      4058       1    4192    6618    6617    4191                
CQUAD4      4059       1    4193    6619    6618    4192                
CQUAD4      4060       1    1765    6620    6619    4193                
CQUAD4      4061       1    1765    4194    6621    6620                
CQUAD4      4062       1    4194    4195    6622    6621                
CQUAD4      4063       1    4195    4196    6623    6622                
CQUAD4      4064       1    4196    4197    6624    6623                
CQUAD4      4065       1    4197    4198    6625    6624                
CQUAD4      4066       1    4198    4199    6626    6625                
CQUAD4      4067       1    4199    1513    3554    6626                
CQUAD4      4068       1    6614    6627    4200    4201                
CQUAD4      4069       1    6615    6628    6627    6614                
CQUAD4      4070       1    6616    6629    6628    6615                
CQUAD4      4071       1    6617    6630    6629    6616                
CQUAD4      4072       1    6618    6631    6630    6617                
CQUAD4      4073       1    6619    6632    6631    6618                
$ ... 133 like lines cut
ENDDATA 81f239ad
