INIT MASTER(S)
NASTRAN SYSTEM(442)=-1,SYSTEM(319)=1
ID FFinalM,FEMAP
SOL SESTATIC
CEND
  TITLE = Simcenter Nastran Static Analysis Set
  ECHO = NONE
  DISPLACEMENT(PLOT) = ALL
  SPCFORCE(PLOT) = ALL
  OLOAD(PLOT) = ALL
  FORCE(PLOT,CORNER) = ALL
  STRESS(PLOT,CORNER) = ALL
  SPC = 1
  LOAD = 1
BEGIN BULK
$ ***************************************************************************
$   Written by : Femap
$   Version    : 2412.0
$   Translator : Simcenter Nastran
$   From Model : C:\Documents\Grad_School\!AE_Masters_Project\AE_Masters_Project\Nastran\!FinalModels\CompoundTensionStrip\DFEM\CompoundTensionStripDFEM_CQ4_6.modfem
$   Date       : Thu Nov 20 20:49:27 2025
$   Output To  : C:\Documents\Grad_School\!AE_Masters_Project\AE_Masters_Project\Nastran\!FinalModels\CompoundTensionStrip\DFEM\
$ ***************************************************************************
$
PARAM,PRGPST,NO
PARAM,POST,0
PARAM,OGEOM,NO
PARAM,AUTOSPC,YES
PARAM,K6ROT,100.
PARAM,GRDPNT,0
CORD2C         1       0      0.      0.      0.      0.      0.      1.+FEMAPC1
+FEMAPC1      1.      0.      1.        
CORD2S         2       0      0.      0.      0.      0.      0.      1.+FEMAPC2
+FEMAPC2      1.      0.      1.        
$ Femap Coordinate System 3 : Rectangular Coordinate System
CORD2R         3       0  7.1375    .525      0.  7.1375    .525     -1.+       
+       8.113687.3080695      0.        
$ Femap Load Set 1 : Untitled
FORCE          1    4866       0      1.    125.      0.      0.
FORCE          1    4867       0      1.    250.      0.      0.
FORCE          1    4868       0      1.    250.      0.      0.
FORCE          1    4869       0      1.    250.      0.      0.
FORCE          1    4870       0      1.    125.      0.      0.
$ Femap Constraint Set 1 : Untitled
SPC1           1  123456     287
SPC1           1       2     288
SPC1           1       2     289
SPC1           1       2     290
SPC1           1       2     291
SPC1           1       2     292
SPC1           1       2     293
SPC1           1       2     294
SPC1           1       2     295
SPC1           1       2     296
SPC1           1       2     297
SPC1           1       2     298
SPC1           1       2     299
SPC1           1       2     300
SPC1           1       2     301
SPC1           1       2     302
SPC1           1       2     303
SPC1           1       2     304
SPC1           1       2     305
SPC1           1       2     306
$ ... 65 like lines cut
$ Femap Property 1 : PLATE Property
PSHELL         1       1     .25       1               1              0.
$ Femap Material 1 : 2024-T351 Al Plate: t = 0.25 to 0.5 inches
MAT1           1  1.07+7             .332.5906-4 1.255-5     70.        +       
+         42000.  40000.  38000.
MAT4           1.0016435  83.0762.5906-4                        
GRID         287       0      0.      0.      0.       0
GRID         288       0.1515152      0.      0.       0
GRID         289       0.3030303      0.      0.       0
GRID         290       0.4545455      0.      0.       0
GRID         291       0.6060606      0.      0.       0
GRID         292       0.7575758      0.      0.       0
GRID         293       0.9090909      0.      0.       0
GRID         294       01.060606      0.      0.       0
GRID         295       01.212121      0.      0.       0
GRID         296       01.363636      0.      0.       0
GRID         297       01.515152      0.      0.       0
GRID         298       01.666667      0.      0.       0
GRID         299       01.818182      0.      0.       0
GRID         300       01.969697      0.      0.       0
GRID         301       02.121212      0.      0.       0
GRID         302       02.272727      0.      0.       0
GRID         303       02.424242      0.      0.       0
GRID         304       02.575758      0.      0.       0
GRID         305       02.727273      0.      0.       0
GRID         306       02.878788      0.      0.       0
$ ... 552 like lines cut
CQUAD4       145       1     287     288     367     366                
CQUAD4       146       1     288     289     368     367                
CQUAD4       147       1     289     290     369     368                
CQUAD4       148       1     290     291     370     369                
CQUAD4       149       1     291     292     371     370                
CQUAD4       150       1     292     293     372     371                
CQUAD4       151       1     293     294     373     372                
CQUAD4       152       1     294     295     374     373                
CQUAD4       153       1     295     296     375     374                
CQUAD4       154       1     296     297     376     375                
CQUAD4       155       1     297     298     377     376                
CQUAD4       156       1     298     299     378     377                
CQUAD4       157       1     299     300     379     378                
CQUAD4       158       1     300     301     380     379                
CQUAD4       159       1     301     302     381     380                
CQUAD4       160       1     302     303     382     381                
CQUAD4       161       1     303     304     383     382                
CQUAD4       162       1     304     305     384     383                
CQUAD4       163       1     305     306     385     384                
CQUAD4       164       1     306     307     386     385                
$ ... 326 like lines cut
CTRIA3      4813       1    6176    6134    6135                        
CQUAD4      4814       1    6177    6176    6135    6136                
CQUAD4      4815       1    6175    6172    6132    6133                
CQUAD4      4816       1    6174    6177    6136    6137                
CQUAD4      4817       1    6127    6126    6176    6177                
CQUAD4      4818       1    6126    6125    6175    6176                
CQUAD4      4819       1    6125    6124    6172    6175                
CQUAD4      4820       1    6128    6127    6177    6174                
CQUAD4      4821       1    6173    6174    6137    6138                
CQUAD4      4822       1    6129    6128    6174    6173                
CQUAD4      4823       1     321    6173    6138     322                
CQUAD4      4824       1     320    6129    6173     321                
CQUAD4      4825       1    6178    6120    6119    6130                
CQUAD4      4826       1    6179    6178    6130    6131                
CQUAD4      4827       1    6172    6179    6131    6132                
CQUAD4      4828       1    6180    6121    6120    6178                
CQUAD4      4829       1    6123    6180    6178    6179                
CQUAD4      4830       1    6123    6122    6121    6180                
CQUAD4      4831       1    6124    6123    6179    6172                
CQUAD4      5600       1    7129    7114    1765    7130                
CQUAD4      5601       1    7119    7118    7114    7129                
$ ... 107 like lines cut
CTRIA3      5762       1    7117    7116    7337                        
CQUAD4      5763       1    7112    7349    7291    1759                
CQUAD4      5764       1    7113    7350    7349    7112                
CQUAD4      5765       1    1765    7351    7350    7113                
CQUAD4      5766       1    1765    7114    7352    7351                
CQUAD4      5767       1    7114    7115    7353    7352                
CQUAD4      5768       1    7115    1513    7283    7353                
CQUAD4      5769       1    7349    7289    7290    7291                
CQUAD4      5770       1    7350    7288    7289    7349                
CQUAD4      5771       1    7351    7287    7288    7350                
CQUAD4      5772       1    7351    7352    7286    7287                
CQUAD4      5773       1    7352    7353    7285    7286                
CQUAD4      5774       1    7353    7283    7284    7285                
ENDDATA 3dba99d7
