INIT MASTER(S)
NASTRAN SYSTEM(442)=-1,SYSTEM(319)=1
ID FFinalM,FEMAP
SOL SESTATIC
CEND
  TITLE = Simcenter Nastran Static Analysis Set
  ECHO = NONE
  DISPLACEMENT(PLOT) = ALL
  SPCFORCE(PLOT) = ALL
  OLOAD(PLOT) = ALL
  FORCE(PLOT,CORNER) = ALL
  STRESS(PLOT,CORNER) = ALL
  SPC = 1
  LOAD = 1
BEGIN BULK
$ ***************************************************************************
$   Written by : Femap
$   Version    : 2412.0
$   Translator : Simcenter Nastran
$   From Model : C:\Documents\Grad_School\!AE_Masters_Project\AE_Masters_Project\Nastran\!FinalModels\CompoundTensionStrip\PyDFEM\CompoundTensionStripPyDFEM_Refined_GoodBoundary.modfem
$   Date       : Wed Nov 19 20:33:58 2025
$   Output To  : C:\Documents\Grad_School\!AE_Masters_Project\AE_Masters_Project\Nastran\!FinalModels\CompoundTensionStrip\PyDFEM\
$ ***************************************************************************
$
PARAM,PRGPST,NO
PARAM,POST,0
PARAM,OGEOM,NO
PARAM,AUTOSPC,YES
PARAM,K6ROT,100.
PARAM,GRDPNT,0
CORD2C         1       0      0.      0.      0.      0.      0.      1.+FEMAPC1
+FEMAPC1      1.      0.      1.        
CORD2S         2       0      0.      0.      0.      0.      0.      1.+FEMAPC2
+FEMAPC2      1.      0.      1.        
$ Femap Coordinate System 3 : Rectangular Coordinate System
CORD2R         3       0  7.1375    .525      0.  7.1375    .525     -1.+       
+       8.113687.3080695      0.        
$ Femap Load Set 1 : Untitled
FORCE          1    2948       0      1.    125.      0.      0.
FORCE          1    2949       0      1.    250.      0.      0.
FORCE          1    2950       0      1.    250.      0.      0.
FORCE          1    2951       0      1.    250.      0.      0.
FORCE          1    2952       0      1.    125.      0.      0.
$ Femap Constraint Set 1 : Untitled
SPC1           1  123456     287
SPC1           1       2     288
SPC1           1       2     289
SPC1           1       2     290
SPC1           1       2     291
SPC1           1       2     292
SPC1           1       2     293
SPC1           1       2     294
SPC1           1       2     295
SPC1           1       2     296
SPC1           1       2     297
SPC1           1       2     298
SPC1           1       2     299
SPC1           1       2     300
SPC1           1       2     301
SPC1           1       2     302
SPC1           1       2     303
SPC1           1       2     304
SPC1           1       2     305
SPC1           1       2     306
$ ... 75 like lines cut
$ Femap Property 1 : PLATE Property
PSHELL         1       1     .25       1               1              0.
$ Femap Material 1 : 2024-T351 Al Plate: t = 0.25 to 0.5 inches
MAT1           1  1.07+7             .332.5906-4 1.255-5     70.        +       
+         42000.  40000.  38000.
MAT4           1.0016435  83.0762.5906-4                        
GRID         287       0      0.      0.      0.       0
GRID         288       0.1515152      0.      0.       0
GRID         289       0.3030303      0.      0.       0
GRID         290       0.4545455      0.      0.       0
GRID         291       0.6060606      0.      0.       0
GRID         292       0.7575758      0.      0.       0
GRID         293       0.9090909      0.      0.       0
GRID         294       01.060606      0.      0.       0
GRID         295       01.212121      0.      0.       0
GRID         296       01.363636      0.      0.       0
GRID         297       01.515152      0.      0.       0
GRID         298       01.666667      0.      0.       0
GRID         299       01.818182      0.      0.       0
GRID         300       01.969697      0.      0.       0
GRID         301       02.121212      0.      0.       0
GRID         302       02.272727      0.      0.       0
GRID         303       02.424242      0.      0.       0
GRID         304       02.575758      0.      0.       0
GRID         305       02.727273      0.      0.       0
GRID         306       02.878788      0.      0.       0
$ ... 814 like lines cut
CQUAD4       145       1     287     288     367     366                
CQUAD4       146       1     288     289     368     367                
CQUAD4       147       1     289     290     369     368                
CQUAD4       148       1     290     291     370     369                
CQUAD4       149       1     291     292     371     370                
CQUAD4       150       1     292     293     372     371                
CQUAD4       151       1     293     294     373     372                
CQUAD4       152       1     294     295     374     373                
CQUAD4       153       1     295     296     375     374                
CQUAD4       154       1     296     297     376     375                
CQUAD4       155       1     297     298     377     376                
CQUAD4       156       1     298     299     378     377                
CQUAD4       157       1     299     300     379     378                
CQUAD4       158       1     300     301     380     379                
CQUAD4       159       1     301     302     381     380                
CQUAD4       160       1     302     303     382     381                
CQUAD4       161       1     303     304     383     382                
CQUAD4       162       1     304     305     384     383                
CQUAD4       163       1     305     306     385     384                
CQUAD4       164       1     306     307     386     385                
$ ... 305 like lines cut
CTRIA3       942       1    1469    1462    1468                        
CQUAD4       943       1    1453    1452    1460    1461                
CQUAD4       944       1    1455    1454    1462    1463                
CQUAD4       945       1    1452     758     993    1496                
CQUAD4       946       1    1496     993     994    1497                
CQUAD4       947       1    1497     994     995    1458                
CQUAD4       948       1    1459    1496    1497    1458                
CQUAD4       949       1    1452    1496    1459    1460                
CQUAD4       950       1     571    1455    1463     570                
CQUAD4       951       1    1461    1460    1494    1498                
CQUAD4       952       1    1461    1498    1500    1467                
CQUAD4       953       1    1498    1494    1495    1500                
CQUAD4       954       1    1500    1495    1466    1499                
CQUAD4       955       1    1467    1500    1499    1483                
CQUAD4       956       1    1499    1466    1473    1483                
CQUAD8      1102       1    1760    1788    1787    1759    1811    1812+       
+           1813    1810                                                
CQUAD8      1103       1    1761    1789    1788    1760    1815    1816+       
+           1811    1814                                                
CQUAD8      1104       1    1762    1790    1789    1761    1818    1819+       
+           1815    1817                                                
CQUAD8      1105       1    1763    1791    1790    1762    1821    1822+       
+           1818    1820                                                
CQUAD8      1106       1    1764    1792    1791    1763    1824    1825+       
+           1821    1823                                                
CQUAD8      1107       1    1764    1765    1793    1792    1826    1827+       
+           1828    1824                                                
CQUAD8      1108       1    1765    1766    1794    1793    1829    1830+       
+           1831    1827                                                
CQUAD8      1109       1    1766    1767    1795    1794    1832    1833+       
+           1834    1830                                                
CQUAD8      1110       1    1767    1768    1796    1795    1835    1836+       
+           1837    1833                                                
CQUAD8      1111       1    1768    1769    1797    1796    1838    1839+       
+           1840    1836                                                
CQUAD8      1112       1    1769    1770    1798    1797    1841    1842+       
+           1843    1839                                                
CQUAD8      1113       1    1770    1513    1771    1798    1844    1845+       
+           1846    1842                                                
CQUAD8      1114       1    1788    1799    1786    1787    1847    1848+       
+           1849    1812                                                
CQUAD8      1115       1    1789    1800    1799    1788    1850    1851+       
+           1847    1816                                                
CQUAD8      1116       1    1790    1801    1800    1789    1852    1853+       
+           1850    1819                                                
CQUAD8      1117       1    1791    1802    1801    1790    1854    1855+       
+           1852    1822                                                
CQUAD8      1118       1    1792    1803    1802    1791    1856    1857+       
+           1854    1825                                                
CQUAD8      1119       1    1792    1793    1804    1803    1828    1858+       
+           1859    1856                                                
CQUAD8      1120       1    1793    1794    1805    1804    1831    1860+       
+           1861    1858                                                
CQUAD8      1121       1    1794    1795    1806    1805    1834    1862+       
+           1863    1860                                                
$ ... 32 like lines cut
CQUAD4      1153       1    1986    1996    1999    1987                
CQUAD4      1154       1    1996    1995    1998    1999                
CQUAD4      1155       1    1987    1999    1997    1988                
CQUAD4      1156       1    1995    1994    2000    1998                
CQUAD4      1157       1    1988    1997    2001    1989                
CQUAD4      1158       1    1993    1992    1767    1766                
CQUAD4      1159       1    2003    2004    1994    1995                
CQUAD4      1160       1    1968    1967    2004    2003                
CQUAD4      1161       1    2002    2003    1995    1996                
CQUAD4      1162       1    1969    1968    2003    2002                
CQUAD4      1163       1    1985    2002    1996    1986                
CQUAD4      1164       1    1970    1969    2002    1985                
CQUAD4      1165       1    1966    1965    2005    1992                
CQUAD4      1166       1    1965    1964    1768    2005                
CQUAD4      1167       1    1992    2005    1768    1767                
CQUAD4      1168       1    1964    1963    1769    1768                
CQUAD4      1169       1    1963    1962    1770    1769                
CQUAD4      1170       1    1990    1762    1761    1991                
CQUAD4      1171       1    1991    1761    1760    1977                
CQUAD4      1172       1    1984    1991    1977    1976                
$ ... 255 like lines cut
ENDDATA 58dfd69b
