INIT MASTER(S)
NASTRAN SYSTEM(442)=-1,SYSTEM(319)=1
ID FFinalM,FEMAP
SOL SESTATIC
CEND
  TITLE = Simcenter Nastran Static Analysis Set
  ECHO = NONE
  DISPLACEMENT(PLOT) = ALL
  SPCFORCE(PLOT) = ALL
  OLOAD(PLOT) = ALL
  FORCE(PLOT,CORNER) = ALL
  STRESS(PLOT,CORNER) = ALL
  SPC = 1
  LOAD = 1
BEGIN BULK
$ ***************************************************************************
$   Written by : Femap
$   Version    : 2412.0
$   Translator : Simcenter Nastran
$   From Model : C:\Documents\Grad_School\!AE_Masters_Project\AE_Masters_Project\Nastran\!FinalModels\CompoundTensionStrip\PyDFEM\CompoundTensionStripPyDFEM.modfem
$   Date       : Wed Nov 19 18:40:06 2025
$   Output To  : C:\Documents\Grad_School\!AE_Masters_Project\AE_Masters_Project\Nastran\!FinalModels\CompoundTensionStrip\PyDFEM\
$ ***************************************************************************
$
PARAM,PRGPST,NO
PARAM,POST,0
PARAM,OGEOM,NO
PARAM,AUTOSPC,YES
PARAM,K6ROT,100.
PARAM,GRDPNT,0
CORD2C         1       0      0.      0.      0.      0.      0.      1.+FEMAPC1
+FEMAPC1      1.      0.      1.        
CORD2S         2       0      0.      0.      0.      0.      0.      1.+FEMAPC2
+FEMAPC2      1.      0.      1.        
$ Femap Load Set 1 : Untitled
FORCE          1    3766       0      1.    125.      0.      0.
FORCE          1    3767       0      1.    250.      0.      0.
FORCE          1    3768       0      1.    250.      0.      0.
FORCE          1    3769       0      1.    250.      0.      0.
FORCE          1    3770       0      1.    125.      0.      0.
$ Femap Constraint Set 1 : Untitled
SPC1           1       2     666
SPC1           1  123456    1311
SPC1           1       2    1312
SPC1           1       2    1313
SPC1           1       2    1314
SPC1           1       2    1315
SPC1           1       2    1316
SPC1           1       2    1317
SPC1           1       2    1318
SPC1           1       2    1319
SPC1           1       2    1320
SPC1           1       2    1321
SPC1           1       2    1322
SPC1           1       2    1323
SPC1           1       2    1324
SPC1           1       2    1325
SPC1           1       2    1326
SPC1           1       2    1327
SPC1           1       2    1328
SPC1           1       2    1329
$ ... 79 like lines cut
$ Femap Property 1 : PLATE Property
PSHELL         1       1     .25       1               1              0.
$ Femap Material 1 : 2024-T351 Al Plate: t = 0.25 to 0.5 inches
MAT1           1  1.07+7             .332.5906-4 1.255-5     70.        +       
+         42000.  40000.  38000.
MAT4           1.0016435  83.0762.5906-4                        
GRID         643       0   6.125     .75      0.       0
GRID         666       0   6.125      0.      0.       0
GRID        1311       0      0.      0.      0.       0
GRID        1312       0.1515152      0.      0.       0
GRID        1313       0.3030303      0.      0.       0
GRID        1314       0.4545455      0.      0.       0
GRID        1315       0.6060606      0.      0.       0
GRID        1316       0.7575758      0.      0.       0
GRID        1317       0.9090909      0.      0.       0
GRID        1318       01.060606      0.      0.       0
GRID        1319       01.212121      0.      0.       0
GRID        1320       01.363636      0.      0.       0
GRID        1321       01.515152      0.      0.       0
GRID        1322       01.666667      0.      0.       0
GRID        1323       01.818182      0.      0.       0
GRID        1324       01.969697      0.      0.       0
GRID        1325       02.121212      0.      0.       0
GRID        1326       02.272727      0.      0.       0
GRID        1327       02.424242      0.      0.       0
GRID        1328       02.575758      0.      0.       0
$ ... 840 like lines cut
CQUAD4      1163       1    1311    1312    1391    1390                
CQUAD4      1164       1    1312    1313    1392    1391                
CQUAD4      1165       1    1313    1314    1393    1392                
CQUAD4      1166       1    1314    1315    1394    1393                
CQUAD4      1167       1    1315    1316    1395    1394                
CQUAD4      1168       1    1316    1317    1396    1395                
CQUAD4      1169       1    1317    1318    1397    1396                
CQUAD4      1170       1    1318    1319    1398    1397                
CQUAD4      1171       1    1319    1320    1399    1398                
CQUAD4      1172       1    1320    1321    1400    1399                
CQUAD4      1173       1    1321    1322    1401    1400                
CQUAD4      1174       1    1322    1323    1402    1401                
CQUAD4      1175       1    1323    1324    1403    1402                
CQUAD4      1176       1    1324    1325    1404    1403                
CQUAD4      1177       1    1325    1326    1405    1404                
CQUAD4      1178       1    1326    1327    1406    1405                
CQUAD4      1179       1    1327    1328    1407    1406                
CQUAD4      1180       1    1328    1329    1408    1407                
CQUAD4      1181       1    1329    1330    1409    1408                
CQUAD4      1182       1    1330    1331    1410    1409                
$ ... 550 like lines cut
CTRIA3      3736       1    4260    4262    4263                        
CQUAD4      3737       1    4246    4245    4262    4260                
CQUAD4      3738       1    4261    4264    4250    4249                
CQUAD4      3739       1    4259    4261    4249    4248                
CQUAD4      3740       1    4258    4260    4261    4259                
CQUAD4      3741       1    4247    4246    4260    4258                
CQUAD4      3742       1    1348    4259    4248    1349                
CQUAD4      3743       1    1347    4258    4259    1348                
CQUAD4      3744       1    1346    4247    4258    1347                
CQUAD4      3745       1    4303    4305    4220    4219                
CQUAD4      3746       1    4302    4304    4305    4303                
CQUAD4      3747       1    4305    4304    4221    4220                
CQUAD4      3748       1    4249    4250    4304    4302                
CQUAD4      3749       1    4250    4251    4299    4304                
CQUAD4      3750       1    4304    4299    4222    4221                
CQUAD4      3751       1    4301    4303    4219    4218                
CQUAD4      3752       1    4300    4302    4303    4301                
CQUAD4      3753       1    4248    4249    4302    4300                
CQUAD4      3754       1    4306    4301    4218    4217                
CQUAD4      3755       1    1350    4306    4217    1351                
CQUAD4      3756       1    1350    4300    4301    4306                
$ ... 54 like lines cut
CQUAD8      3811       1    4346    4347    4359    4358    4367    4364+       
+           4365    4366                                                
CQUAD8      3812       1    4359    4347    4339    4340    4364    4368+       
+           4369    4370                                                
CQUAD8      3813       1    4358    4359    4360    4357    4365    4371+       
+           4372    4373                                                
CQUAD8      3814       1    4357    4360    4096    4356    4372    4376+       
+           4374    4375                                                
CQUAD8      3815       1    4360    4359    4340    4096    4371    4370+       
+           4377    4376                                                
CQUAD8      3816       1    4356    4096    4341    4353    4374    4380+       
+           4378    4379                                                
CQUAD8      3817       1    4344    4345    4355    4352    4384    4381+       
+           4382    4383                                                
CQUAD8      3818       1    4352    4355    4354    4351    4382    4386+       
+           4387    4385                                                
CQUAD8      3819       1    4353    4341    4342    4350    4378    4389+       
+           4390    4388                                                
CQUAD8      3820       1    4351    4354    4353    4350    4387    4392+       
+           4388    4391                                                
CQUAD8      3821       1    4350    4342    4343    4349    4390    4394+       
+           4395    4393                                                
CQUAD8      3822       1    4349    4343    4101    4196    4395    4397+       
+           4398    4396                                                
CQUAD8      3823       1    3903    4349    4196    3902    4399    4396+       
+           4400    4199                                                
CQUAD8      3824       1    3904    4350    4349    3903    4401    4393+       
+           4399    4186                                                
CQUAD8      3825       1    3905    4351    4350    3904    4402    4391+       
+           4401    4180                                                
CQUAD8      3826       1    3906    4352    4351    3905    4403    4385+       
+           4402    4192                                                
CQUAD8      3827       1    3907    4344    4352    3906    4404    4383+       
+           4403    4194                                                
CQUAD8      3828       1    4347    4348    4338    4339    4406    4407+       
+           4405    4368                                                
CQUAD8      3829       1    4348    3740    3741    4338    4409    4171+       
+           4408    4407                                                
CQUAD8      3830       1    3867    3868    4345    4344    4203    4410+       
+           4384    4411                                                
$ ... 22 like lines cut
CQUAD4      3842       1    4425    3061    4211    4426                
CQUAD4      3843       1    3971    4425    4426    3970                
CQUAD4      3844       1    3936    4429    4425    3971                
CQUAD4      3845       1    4429    4428    3061    4425                
CQUAD4      3846       1    4432    4216    3867    4212                
CQUAD4      3847       1    3872    4216    4432    4428                
CQUAD4      3848       1    4435    4434    3739    4214                
CQUAD4      3849       1    3885    3738    4434    4435                
CQUAD4      3850       1    4434    4438    4437    3739                
CQUAD4      3851       1    4438    3795    3796    4437                
CQUAD4      3852       1    4213    4441    3797    3740                
CQUAD4      3853       1    4437    3796    3797    4441                
ENDDATA bcc6993d
