INIT MASTER(S)
NASTRAN SYSTEM(442)=-1,SYSTEM(319)=1
ID FFinalM,FEMAP
SOL SESTATIC
CEND
  TITLE = Simcenter Nastran Static Analysis Set
  ECHO = NONE
  DISPLACEMENT(PLOT) = ALL
  SPCFORCE(PLOT) = ALL
  OLOAD(PLOT) = ALL
  FORCE(PLOT,CORNER) = ALL
  STRESS(PLOT,CORNER) = ALL
  SPC = 1
  LOAD = 1
BEGIN BULK
$ ***************************************************************************
$   Written by : Femap
$   Version    : 2412.0
$   Translator : Simcenter Nastran
$   From Model : C:\Documents\Grad_School\!AE_Masters_Project\AE_Masters_Project\Nastran\!FinalModels\CompoundTensionStrip3\CQ4\CompoundTensionStrip_CQ4_22.modfem
$   Date       : Mon Nov 24 17:01:34 2025
$   Output To  : C:\Documents\Grad_School\!AE_Masters_Project\AE_Masters_Project\Nastran\!FinalModels\CompoundTensionStrip3\CQ4\
$ ***************************************************************************
$
PARAM,PRGPST,NO
PARAM,POST,0
PARAM,OGEOM,NO
PARAM,AUTOSPC,YES
PARAM,K6ROT,100.
PARAM,GRDPNT,0
CORD2C         1       0      0.      0.      0.      0.      0.      1.+FEMAPC1
+FEMAPC1      1.      0.      1.        
CORD2S         2       0      0.      0.      0.      0.      0.      1.+FEMAPC2
+FEMAPC2      1.      0.      1.        
$ Femap Load Set 1 : Untitled
FORCE          1      51       0      1.71.42857      0.      0.
FORCE          1     159       0      1.71.42857      0.      0.
FORCE          1    6660       0      1.142.8571      0.      0.
FORCE          1    6661       0      1.142.8571      0.      0.
FORCE          1    6662       0      1.142.8571      0.      0.
FORCE          1    6663       0      1.142.8571      0.      0.
FORCE          1    6664       0      1.142.8571      0.      0.
FORCE          1    6665       0      1.142.8571      0.      0.
$ Femap Constraint Set 1 : Untitled
SPC1           1       1      96
SPC1           1       1      97
SPC1           1       1      98
SPC1           1       1      99
SPC1           1       1     100
SPC1           1       1     101
SPC1           1       1     102
SPC1           1       1     103
SPC1           1       1     104
SPC1           1       1     105
SPC1           1       1     106
SPC1           1       1     107
SPC1           1  123456     108
SPC1           1       2     159
SPC1           1       2    8326
SPC1           1       2    8327
SPC1           1       2    8328
SPC1           1       2    8329
SPC1           1       2    8330
SPC1           1       2    8331
$ ... 93 like lines cut
$ Femap Property 1 : MEMBRANE Property
PSHELL         1       1     .25                                      0.
$ Femap Material 1 : 2024-T351 Al Plate: t = 0.25 to 0.5 inches
MAT1           1  1.07+7             .332.5906-4 1.255-5     70.        +       
+         42000.  40000.  38000.
MAT4           1.0016435  83.0762.5906-4                        
GRID           1       05.992988.3749992      0.       0
GRID           5       05.992988.7499985      0.       0
GRID           9       05.742989 .999998      0.       0
GRID          13       05.367989 .999998      0.       0
GRID          26       06.492987.3749993      0.       0
GRID          30       06.492987.7499985      0.       0
GRID          46       05.3679891.392914      0.       0
GRID          51       09.592981.7499985      0.       0
GRID          67       05.2316561.535761      0.       0
GRID          68       05.0953231.678608      0.       0
GRID          69       0 4.958991.821455      0.       0
GRID          70       04.8226571.964302      0.       0
GRID          71       04.6863242.107149      0.       0
GRID          72       04.5499912.249995      0.       0
GRID          73       04.3604082.249995      0.       0
GRID          74       04.1708252.249995      0.       0
GRID          75       03.9812422.249995      0.       0
GRID          76       03.7916592.249995      0.       0
GRID          77       03.6020762.249995      0.       0
GRID          78       03.4124932.249995      0.       0
$ ... 1896 like lines cut
CQUAD4     10344       1   10753       9   12151   12171                
CQUAD4     10345       1   12171   12169   10754   10753                
CQUAD4     10346       1   12171   12151   12152   12169                
CQUAD4     10347       1   10754   12169   12170   10755                
CQUAD4     10348       1   12170   12168   10756   10755                
CQUAD4     10349       1   12170   12169   12173   12172                
CQUAD4     10350       1   12172   12173   12153   12165                
CQUAD4     10351       1   12170   12172   12188   12168                
CQUAD4     10352       1   12169   12152   12153   12173                
CQUAD4     10353       1   12168   12188   12166   12174                
CQUAD4     10354       1   12174   10757   10756   12168                
CQUAD4     10355       1   10758   10757   12174   12175                
CQUAD4     10356       1   10758   12175   12167   10759                
CQUAD4     10357       1   12174   12166   12167   12175                
CQUAD4     10358       1   12167   12164   10760   10759                
CQUAD4     10359       1   12163   12164   12167   12181                
CQUAD4     10360       1   12181   12180   12162   12163                
CQUAD4     10361       1   12178   12179   12180   12181                
CQUAD4     10362       1   12181   12167   12166   12178                
CQUAD4     10363       1   12177   12161   12162   12180                
$ ... 16 like lines cut
CTRIA3     10380       1    3827    3828   12185                        
CQUAD4     10381       1   12162   12161    3826    3827                
CQUAD4     10382       1   12161   12189    3825    3826                
CQUAD4     10383       1   12160   12159    3824    3825                
CQUAD4     10384       1   12157    3823    3824   12159                
CTRIA3     10385       1   12159   12156   12157                        
CQUAD4     10386       1    3822    3823   12157   12158                
CTRIA3     10387       1   12158      46    3822                        
CQUAD4     10388       1   12188   12172   12165   12166                
CQUAD4     10389       1   12189   12183   12160    3825                
CQUAD4     10390       1   12586   12585   12584    9543                
CQUAD4     10391       1   12582   12585   12586   12581                
CQUAD4     10392       1   12586    9543    2048   12581                
CQUAD4     10393       1   12587   12583   12584   12585                
CQUAD4     10394       1   12570   12583   12587   12569                
CQUAD4     10395       1   12587   12585   12582   12569                
CQUAD4     10396       1   12581    2048    9542   12579                
CQUAD4     10397       1   12588   12580   12576   12577                
CQUAD4     10398       1   12589   12582   12581   12588                
CQUAD4     10399       1   12569   12582   12589   12568                
CQUAD4     10400       1   12589   12588   12577   12568                
CQUAD4     10401       1   12590   12579    9542    9541                
CQUAD4     10402       1   12590    9541    9540   12578                
CQUAD4     10403       1   12591   12567   12568   12577                
CQUAD4     10404       1   12565   12567   12591   12564                
CQUAD4     10405       1   12591   12577   12576   12564                
CQUAD4     10406       1   12564   12576   12575   12563                
CQUAD4     10407       1   12575   12574   12562   12563                
$ ... 1128 like lines cut
CTRIA3     11536       1   13189   13203   13202                        
CQUAD4     11537       1    6662    6663   13189   13188                
CQUAD4     11538       1    6665   13191   13190    6664                
CQUAD4     11539       1    6662   13188   13187    6661                
CQUAD4     11540       1    6661   13187   13186    6660                
CQUAD4     11541       1   13191    6665      51    7470                
CQUAD4     11542       1    6660   13186    8424     159                
CQUAD4     11543       1   13264   12396    8348    8349                
CQUAD4     11544       1   13265   12441    8354    8355                
CQUAD4     11545       1   13266   12272    8332    8333                
CQUAD4     11546       1   13267   12317    8338    8339                
CQUAD4     11547       1   13268   12362    8344    8345                
CQUAD4     11548       1   13269   12411    8350    8351                
CQUAD4     11549       1   13270   12456    8356    8357                
CQUAD4     11550       1    8329   13271   12242    8328                
CQUAD4     11551       1   13272   12287    8334    8335                
CQUAD4     11552       1   13273   12332    8340    8341                
CQUAD4     11553       1   13274   12377    8346    8347                
CQUAD4     11554       1   10165   13275   12987   10166                
CQUAD4     11555       1   13276   12426    8352    8353                
CQUAD4     11556       1   13277   12257    8330    8331                
$ ... 585 like lines cut
ENDDATA ee370c76
