INIT MASTER(S)
NASTRAN SYSTEM(442)=-1,SYSTEM(319)=1
ID FFinalM,FEMAP
SOL SESTATIC
CEND
  TITLE = Simcenter Nastran Static Analysis Set
  ECHO = NONE
  DISPLACEMENT(PLOT) = ALL
  SPCFORCE(PLOT) = ALL
  OLOAD(PLOT) = ALL
  FORCE(PLOT,CORNER) = ALL
  STRESS(PLOT,CORNER) = ALL
  SPC = 1
  LOAD = 1
BEGIN BULK
$ ***************************************************************************
$   Written by : Femap
$   Version    : 2412.0
$   Translator : Simcenter Nastran
$   From Model : C:\Documents\Grad_School\!AE_Masters_Project\AE_Masters_Project\Nastran\!FinalModels\CompoundTensionStrip3\CQ4\CompoundTensionStrip_CQ4_28.modfem
$   Date       : Mon Nov 24 22:31:41 2025
$   Output To  : C:\Documents\Grad_School\!AE_Masters_Project\AE_Masters_Project\Nastran\!FinalModels\CompoundTensionStrip3\CQ4\
$ ***************************************************************************
$
PARAM,PRGPST,NO
PARAM,POST,0
PARAM,OGEOM,NO
PARAM,AUTOSPC,YES
PARAM,K6ROT,100.
PARAM,GRDPNT,0
CORD2C         1       0      0.      0.      0.      0.      0.      1.+FEMAPC1
+FEMAPC1      1.      0.      1.        
CORD2S         2       0      0.      0.      0.      0.      0.      1.+FEMAPC2
+FEMAPC2      1.      0.      1.        
$ Femap Load Set 1 : Untitled
FORCE          1      51       0      1.71.42857      0.      0.
FORCE          1     159       0      1.71.42857      0.      0.
FORCE          1    6660       0      1.142.8571      0.      0.
FORCE          1    6661       0      1.142.8571      0.      0.
FORCE          1    6662       0      1.142.8571      0.      0.
FORCE          1    6663       0      1.142.8571      0.      0.
FORCE          1    6664       0      1.142.8571      0.      0.
FORCE          1    6665       0      1.142.8571      0.      0.
$ Femap Constraint Set 1 : Untitled
SPC1           1       1      96
SPC1           1       1      97
SPC1           1       1      98
SPC1           1       1      99
SPC1           1       1     100
SPC1           1       1     101
SPC1           1       1     102
SPC1           1       1     103
SPC1           1       1     104
SPC1           1       1     105
SPC1           1       1     106
SPC1           1       1     107
SPC1           1  123456     108
SPC1           1       2     159
SPC1           1       2    8326
SPC1           1       2    8327
SPC1           1       2    8328
SPC1           1       2    8329
SPC1           1       2    8330
SPC1           1       2    8331
$ ... 93 like lines cut
$ Femap Property 1 : MEMBRANE Property
PSHELL         1       1     .25                                      0.
$ Femap Material 1 : 2024-T351 Al Plate: t = 0.25 to 0.5 inches
MAT1           1  1.07+7             .332.5906-4 1.255-5     70.        +       
+         42000.  40000.  38000.
MAT4           1.0016435  83.0762.5906-4                        
GRID           1       05.992988.3749992      0.       0
GRID           5       05.992988.7499985      0.       0
GRID           9       05.742989 .999998      0.       0
GRID          13       05.367989 .999998      0.       0
GRID          26       06.492987.3749993      0.       0
GRID          30       06.492987.7499985      0.       0
GRID          46       05.3679891.392914      0.       0
GRID          51       09.592981.7499985      0.       0
GRID          67       05.2316561.535761      0.       0
GRID          68       05.0953231.678608      0.       0
GRID          69       0 4.958991.821455      0.       0
GRID          70       04.8226571.964302      0.       0
GRID          71       04.6863242.107149      0.       0
GRID          72       04.5499912.249995      0.       0
GRID          73       04.3604082.249995      0.       0
GRID          74       04.1708252.249995      0.       0
GRID          75       03.9812422.249995      0.       0
GRID          76       03.7916592.249995      0.       0
GRID          77       03.6020762.249995      0.       0
GRID          78       03.4124932.249995      0.       0
$ ... 2092 like lines cut
CQUAD4     10344       1   10753       9   12151   12171                
CQUAD4     10345       1   10754   10753   12171   12169                
CQUAD4     10346       1   12169   12171   12151   12152                
CQUAD4     10347       1   10755   10754   12169   12170                
CQUAD4     10348       1   10756   10755   12170   12168                
CQUAD4     10349       1   12170   12169   12173   12172                
CQUAD4     10350       1   12172   12173   12153   12165                
CQUAD4     10351       1   12168   12170   12172   12188                
CQUAD4     10352       1   12173   12169   12152   12153                
CQUAD4     10353       1   12174   12168   12188   12166                
CQUAD4     10354       1   10757   10756   12168   12174                
CQUAD4     10355       1   10758   10757   12174   12175                
CQUAD4     10356       1   10759   10758   12175   12167                
CQUAD4     10357       1   12175   12174   12166   12167                
CQUAD4     10358       1   10760   10759   12167   12164                
CQUAD4     10359       1   12164   12167   12181   12163                
CQUAD4     10360       1   12163   12181   12180   12162                
CQUAD4     10361       1   12181   12178   12179   12180                
CQUAD4     10362       1   12167   12166   12178   12181                
CQUAD4     10363       1   12162   12180   12177   12161                
$ ... 16 like lines cut
CTRIA3     10380       1    3828   12185    3827                        
CQUAD4     10381       1    3827   12162   12161    3826                
CQUAD4     10382       1    3826   12161   12189    3825                
CQUAD4     10383       1    3825   12160   12159    3824                
CQUAD4     10384       1    3824   12159   12157    3823                
CTRIA3     10385       1   12159   12156   12157                        
CQUAD4     10386       1    3823   12157   12158    3822                
CTRIA3     10387       1    3822   12158      46                        
CQUAD4     10388       1   12166   12188   12172   12165                
CQUAD4     10389       1   12189   12183   12160    3825                
CQUAD4     12252       1   15544   13374    2048   15538                
CQUAD4     12253       1   15541   15542   13374   15544                
CQUAD4     12254       1   15539   15541   15544   15538                
CQUAD4     12255       1   15542   15543   13375   13374                
CQUAD4     12256       1   15543   15540   13376   13375                
CQUAD4     12257       1   15529   15530   15545   15546                
CQUAD4     12258       1   15545   15547   15543   15542                
CQUAD4     12259       1   15547   15531   15540   15543                
CQUAD4     12260       1   15530   15531   15547   15545                
CQUAD4     12261       1   15540   15548   13377   13376                
CQUAD4     12262       1   15532   13378   13377   15548                
CQUAD4     12263       1   15531   15532   15548   15540                
CQUAD4     12264       1   15535   15538    2048   13373                
CQUAD4     12265       1   15536   15539   15538   15535                
CQUAD4     12266       1   15535   13373   13372   15534                
CQUAD4     12267       1   15534   13372   13371   15533                
CQUAD4     12268       1   15526   15550   15549   15525                
CQUAD4     12269       1   15550   15536   15535   15549                
$ ... 150 like lines cut
CTRIA3     12420       1   15627   15633   15632                        
CQUAD4     12421       1   15626   15627   15632   15631                
CQUAD4     12422       1   15625   15626   15631   15630                
CQUAD4     12423       1   15628   15629   15635   15634                
CQUAD4     12424       1   15611   15625   15630   15610                
CQUAD4     12425       1   15629   15481   15480   15635                
CQUAD4     12426       1   15615   15616   15628   15627                
CQUAD4     12427       1   15614   15615   15627   15626                
CQUAD4     12428       1   15613   15614   15626   15625                
CQUAD4     12429       1   15616   15617   15629   15628                
CQUAD4     12430       1   15612   15613   15625   15611                
CQUAD4     12431       1   15617   15482   15481   15629                
CQUAD4     12432       1   15691   15683   15684   15694                
CQUAD4     12433       1   15694   15684   15685   15693                
CQUAD4     12434       1   15693   15685   15414   15415                
CQUAD4     12435       1   15690   15691   15694   15692                
CQUAD4     12436       1   15867   15415   15866   16320                
CQUAD4     12437       1   15692   15694   15693   15416                
CQUAD4     12438       1   15689   15690   15692   15688                
CQUAD4     12439       1   15688   15692   15416   15417                
CQUAD4     12440       1   15622   15621   15690   15689                
$ ... 1754 like lines cut
ENDDATA 0da8ada5
