INIT MASTER(S)
NASTRAN SYSTEM(442)=-1,SYSTEM(319)=1
ID FFinalM,FEMAP
SOL SESTATIC
CEND
  TITLE = Simcenter Nastran Static Analysis Set
  ECHO = NONE
  DISPLACEMENT(PLOT) = ALL
  SPCFORCE(PLOT) = ALL
  OLOAD(PLOT) = ALL
  FORCE(PLOT,CORNER) = ALL
  STRESS(PLOT,CORNER) = ALL
  SPC = 1
  LOAD = 1
BEGIN BULK
$ ***************************************************************************
$   Written by : Femap
$   Version    : 2412.0
$   Translator : Simcenter Nastran
$   From Model : C:\Documents\Grad_School\!AE_Masters_Project\AE_Masters_Project\Nastran\!FinalModels\CompoundTensionStrip3\CompoundTensionStrip_CQ4_4.modfem
$   Date       : Mon Nov 24 15:28:17 2025
$   Output To  : C:\Documents\Grad_School\!AE_Masters_Project\AE_Masters_Project\Nastran\!FinalModels\CompoundTensionStrip3\
$ ***************************************************************************
$
PARAM,PRGPST,NO
PARAM,POST,0
PARAM,OGEOM,NO
PARAM,AUTOSPC,YES
PARAM,K6ROT,100.
PARAM,GRDPNT,0
CORD2C         1       0      0.      0.      0.      0.      0.      1.+FEMAPC1
+FEMAPC1      1.      0.      1.        
CORD2S         2       0      0.      0.      0.      0.      0.      1.+FEMAPC2
+FEMAPC2      1.      0.      1.        
$ Femap Load Set 1 : Untitled
FORCE          1      51       0      1.    125.      0.      0.
FORCE          1     159       0      1.    125.      0.      0.
FORCE          1     160       0      1.    250.      0.      0.
FORCE          1     161       0      1.    250.      0.      0.
FORCE          1     162       0      1.    250.      0.      0.
$ Femap Constraint Set 1 : Untitled
SPC1           1       1      96
SPC1           1       1      97
SPC1           1       1      98
SPC1           1       1      99
SPC1           1       1     100
SPC1           1       1     101
SPC1           1       1     102
SPC1           1       1     103
SPC1           1       1     104
SPC1           1       1     105
SPC1           1       1     106
SPC1           1       1     107
SPC1           1  123456     108
SPC1           1       2     109
SPC1           1       2     110
SPC1           1       2     111
SPC1           1       2     112
SPC1           1       2     113
SPC1           1       2     114
SPC1           1       2     115
$ ... 44 like lines cut
$ Femap Property 1 : MEMBRANE Property
PSHELL         1       1     .25                                      0.
$ Femap Material 1 : 2024-T351 Al Plate: t = 0.25 to 0.5 inches
MAT1           1  1.07+7             .332.5906-4 1.255-5     70.        +       
+         42000.  40000.  38000.
MAT4           1.0016435  83.0762.5906-4                        
GRID           1       05.992988.3749992      0.       0
GRID           2       05.992988.4687491      0.       0
GRID           3       05.992988.5624989      0.       0
GRID           4       05.992988.6562487      0.       0
GRID           5       05.992988.7499985      0.       0
GRID           6       05.897317.7690286      0.       0
GRID           7       05.816212.8232217      0.       0
GRID           8       05.762019.9043273      0.       0
GRID           9       05.742989 .999998      0.       0
GRID          10       05.649239 .999998      0.       0
GRID          11       05.555489 .999998      0.       0
GRID          12       05.461739 .999998      0.       0
GRID          13       05.367989 .999998      0.       0
GRID          14       05.415564.7608213      0.       0
GRID          15       05.551047.5580571      0.       0
GRID          16       05.753811.4225744      0.       0
GRID          17       05.789688 .509188      0.       0
GRID          18       05.825564.5958015      0.       0
GRID          19       05.861441 .682415      0.       0
GRID          20       05.617338.6243483      0.       0
$ ... 568 like lines cut
CQUAD4         1       1      16       1       2      17                
CQUAD4         2       1      17       2       3      18                
CQUAD4         3       1      18       3       4      19                
CQUAD4         4       1      19       4       5       6                
CQUAD4         5       1      15      16      17      20                
CQUAD4         6       1      20      17      18      21                
CQUAD4         7       1      21      18      19      22                
CQUAD4         8       1      22      19       6       7                
CQUAD4         9       1      15      20      23      14                
CQUAD4        10       1      20      21      24      23                
CQUAD4        11       1      21      22      25      24                
CQUAD4        12       1      22       7       8      25                
CQUAD4        13       1      14      23      12      13                
CQUAD4        14       1      23      24      11      12                
CQUAD4        15       1      24      25      10      11                
CQUAD4        16       1      25       8       9      10                
CQUAD4        17       1      36      26      27      37                
CQUAD4        18       1      37      27      28      38                
CQUAD4        19       1      38      28      29      39                
CQUAD4        20       1      39      29      30      31                
$ ... 20 like lines cut
CTRIA3       509       1     562     558     551                        
CTRIA3       510       1     548     552      46                        
CTRIA3       511       1     562     551     552                        
CTRIA3       512       1      47     552     548                        
CQUAD4       513       1     853     854     856     857                
CQUAD4       514       1     852     853     857     851                
CQUAD4       515       1     857     856     855     851                
CQUAD4       516       1     856     849     850     855                
CQUAD4       517       1     854     848     849     856                
CQUAD4       518       1     851     855     838     839                
CQUAD4       519       1     855     850     837     838                
CQUAD4       520       1     842     843     848     854                
CQUAD4       521       1     841     842     854     853                
CQUAD4       522       1     840     841     853     852                
CQUAD4       523       1     817     851     839     816                
CQUAD4       524       1     818     852     851     817                
CQUAD4       525       1     819     840     852     818                
CQUAD4       526       1     843     844     845     848                
CQUAD4       527       1     848     845     846     849                
CQUAD4       528       1     850     847     836     837                
CQUAD4       529       1     849     846     847     850                
CQUAD4       530       1     847     831     832     836                
CQUAD4       531       1     846     830     831     847                
CQUAD4       532       1     845     829     830     846                
$ ... 112 like lines cut
CTRIA3       645       1     903     908     907                        
CQUAD4       646       1     905     910     909     904                
CQUAD4       647       1     903     907     906     902                
CQUAD4       648       1     902     906      73      74                
CQUAD4       649       1     805     804     910     905                
CQUAD4       650       1     901     905     904     900                
CQUAD4       651       1     900     904     903     899                
CQUAD4       652       1     899     903     902     898                
CQUAD4       653       1     806     805     905     901                
CQUAD4       654       1     898     902      74      75                
CQUAD4       655       1     897     901     900     896                
CQUAD4       656       1     896     900     899     895                
CQUAD4       657       1     895     899     898     894                
CQUAD4       658       1     807     806     901     897                
CQUAD4       659       1     894     898      75      76                
CQUAD4       660       1     789     897     896     788                
CQUAD4       661       1     788     896     895     787                
CQUAD4       662       1     787     895     894     786                
CQUAD4       663       1     790     807     897     789                
CQUAD4       664       1     786     894      76      77                
CQUAD4       665       1     780     791     790     779                
$ ... 330 like lines cut
ENDDATA 3c428f40
