INIT MASTER(S)
NASTRAN SYSTEM(442)=-1,SYSTEM(319)=1
ID FFinalM,FEMAP
SOL SESTATIC
CEND
  TITLE = Simcenter Nastran Static Analysis Set
  ECHO = NONE
  DISPLACEMENT(PLOT) = ALL
  SPCFORCE(PLOT) = ALL
  OLOAD(PLOT) = ALL
  FORCE(PLOT,CORNER) = ALL
  STRESS(PLOT,CORNER) = ALL
  SPC = 1
  LOAD = 1
BEGIN BULK
$ ***************************************************************************
$   Written by : Femap
$   Version    : 2412.0
$   Translator : Simcenter Nastran
$   From Model : C:\Documents\Grad_School\!AE_Masters_Project\AE_Masters_Project\Nastran\!FinalModels\CompoundTensionStrip3\CompoundTensionStrip_CQ4_18.modfem
$   Date       : Mon Nov 24 15:43:30 2025
$   Output To  : C:\Documents\Grad_School\!AE_Masters_Project\AE_Masters_Project\Nastran\!FinalModels\CompoundTensionStrip3\
$ ***************************************************************************
$
PARAM,PRGPST,NO
PARAM,POST,0
PARAM,OGEOM,NO
PARAM,AUTOSPC,YES
PARAM,K6ROT,100.
PARAM,GRDPNT,0
CORD2C         1       0      0.      0.      0.      0.      0.      1.+FEMAPC1
+FEMAPC1      1.      0.      1.        
CORD2S         2       0      0.      0.      0.      0.      0.      1.+FEMAPC2
+FEMAPC2      1.      0.      1.        
$ Femap Load Set 1 : Untitled
FORCE          1      51       0      1.    125.      0.      0.
FORCE          1     159       0      1.    125.      0.      0.
FORCE          1     160       0      1.    250.      0.      0.
FORCE          1     161       0      1.    250.      0.      0.
FORCE          1     162       0      1.    250.      0.      0.
$ Femap Constraint Set 1 : Untitled
SPC1           1       1      96
SPC1           1       1      97
SPC1           1       1      98
SPC1           1       1      99
SPC1           1       1     100
SPC1           1       1     101
SPC1           1       1     102
SPC1           1       1     103
SPC1           1       1     104
SPC1           1       1     105
SPC1           1       1     106
SPC1           1       1     107
SPC1           1  123456     108
SPC1           1       2     109
SPC1           1       2     110
SPC1           1       2     111
SPC1           1       2     112
SPC1           1       2     113
SPC1           1       2     114
SPC1           1       2     115
$ ... 44 like lines cut
$ Femap Property 1 : MEMBRANE Property
PSHELL         1       1     .25                                      0.
$ Femap Material 1 : 2024-T351 Al Plate: t = 0.25 to 0.5 inches
MAT1           1  1.07+7             .332.5906-4 1.255-5     70.        +       
+         42000.  40000.  38000.
MAT4           1.0016435  83.0762.5906-4                        
GRID           1       05.992988.3749992      0.       0
GRID           5       05.992988.7499985      0.       0
GRID           9       05.742989 .999998      0.       0
GRID          13       05.367989 .999998      0.       0
GRID          26       06.492987.3749993      0.       0
GRID          30       06.492987.7499985      0.       0
GRID          46       05.3679891.392914      0.       0
GRID          51       09.592981.7499985      0.       0
GRID          52       09.399231.7499985      0.       0
GRID          53       09.205482.7499985      0.       0
GRID          54       09.011732.7499985      0.       0
GRID          55       08.817982.7499985      0.       0
GRID          56       08.624233.7499985      0.       0
GRID          57       08.430483.7499985      0.       0
GRID          58       08.236734.7499985      0.       0
GRID          59       08.042984.7499985      0.       0
GRID          60       07.849234.7499985      0.       0
GRID          61       07.655485.7499985      0.       0
GRID          62       07.461735.7499985      0.       0
GRID          63       07.267985.7499985      0.       0
$ ... 1041 like lines cut
CQUAD4      3705       1    3466       1    3419    3467                
CQUAD4      3706       1    3467    3419    3420    3468                
CQUAD4      3707       1    3468    3420    3421    3469                
CQUAD4      3708       1    3469    3421    3422    3470                
CQUAD4      3709       1    3470    3422    3423    3471                
CQUAD4      3710       1    3471    3423    3424    3472                
CQUAD4      3711       1    3472    3424    3425    3473                
CQUAD4      3712       1    3473    3425    3426    3474                
CQUAD4      3713       1    3474    3426       5    3427                
CQUAD4      3714       1    3465    3466    3467    3475                
CQUAD4      3715       1    3475    3467    3468    3476                
CQUAD4      3716       1    3476    3468    3469    3477                
CQUAD4      3717       1    3477    3469    3470    3478                
CQUAD4      3718       1    3478    3470    3471    3479                
CQUAD4      3719       1    3479    3471    3472    3480                
CQUAD4      3720       1    3480    3472    3473    3481                
CQUAD4      3721       1    3481    3473    3474    3482                
CQUAD4      3722       1    3482    3474    3427    3428                
CQUAD4      3723       1    3464    3465    3475    3483                
CQUAD4      3724       1    3483    3475    3476    3484                
$ ... 286 like lines cut
CTRIA3      4169       1    3824    3858    3823                        
CTRIA3      4170       1    3822    3769      46                        
CQUAD4      4171       1    3884    3874    3872    3873                
CTRIA3      4172       1    3823    3769    3822                        
CQUAD4      4173       1    4207    4218    4220    4221                
CQUAD4      4174       1    4206    4207    4221    4215                
CQUAD4      4175       1    4215    4221    4220    4219                
CQUAD4      4176       1    4220    3459    2048    4219                
CQUAD4      4177       1    4218    3460    3459    4220                
CQUAD4      4178       1    4219    2048    3458    4222                
CQUAD4      4179       1    4215    4219    4222    4214                
CQUAD4      4180       1    4222    3458    3457    4214                
CQUAD4      4181       1    4218    4217    3461    3460                
CQUAD4      4182       1    4207    4208    4217    4218                
CQUAD4      4183       1    4217    4223    3462    3461                
CQUAD4      4184       1    4209    3463    3462    4223                
CQUAD4      4185       1    4208    4209    4223    4217                
CQUAD4      4186       1    4224    3456    3455    4216                
CQUAD4      4187       1    4214    3457    3456    4224                
CQUAD4      4188       1    4213    4214    4224    4216                
CQUAD4      4189       1    4216    3455    3454    4225                
CQUAD4      4190       1    4213    4216    4225    4212                
CQUAD4      4191       1    4225    3454    3453    4212                
CQUAD4      4192       1    4212    3453    3452    4211                
$ ... 656 like lines cut
ENDDATA 0b0336cf
