INIT MASTER(S)
NASTRAN SYSTEM(442)=-1,SYSTEM(319)=1
ID FFinalM,FEMAP
SOL SESTATIC
CEND
  TITLE = Simcenter Nastran Static Analysis Set
  ECHO = NONE
  DISPLACEMENT(PLOT) = ALL
  SPCFORCE(PLOT) = ALL
  OLOAD(PLOT) = ALL
  FORCE(PLOT,CORNER) = ALL
  STRESS(PLOT,CORNER) = ALL
  SPC = 1
  LOAD = 1
BEGIN BULK
$ ***************************************************************************
$   Written by : Femap
$   Version    : 2412.0
$   Translator : Simcenter Nastran
$   From Model : C:\Documents\Grad_School\!AE_Masters_Project\AE_Masters_Project\Nastran\!FinalModels\CompoundTensionStrip3\CompoundTensionStrip_CQ4_16.modfem
$   Date       : Mon Nov 24 15:33:33 2025
$   Output To  : C:\Documents\Grad_School\!AE_Masters_Project\AE_Masters_Project\Nastran\!FinalModels\CompoundTensionStrip3\
$ ***************************************************************************
$
PARAM,PRGPST,NO
PARAM,POST,0
PARAM,OGEOM,NO
PARAM,AUTOSPC,YES
PARAM,K6ROT,100.
PARAM,GRDPNT,0
CORD2C         1       0      0.      0.      0.      0.      0.      1.+FEMAPC1
+FEMAPC1      1.      0.      1.        
CORD2S         2       0      0.      0.      0.      0.      0.      1.+FEMAPC2
+FEMAPC2      1.      0.      1.        
$ Femap Load Set 1 : Untitled
FORCE          1      51       0      1.    125.      0.      0.
FORCE          1     159       0      1.    125.      0.      0.
FORCE          1     160       0      1.    250.      0.      0.
FORCE          1     161       0      1.    250.      0.      0.
FORCE          1     162       0      1.    250.      0.      0.
$ Femap Constraint Set 1 : Untitled
SPC1           1       1      96
SPC1           1       1      97
SPC1           1       1      98
SPC1           1       1      99
SPC1           1       1     100
SPC1           1       1     101
SPC1           1       1     102
SPC1           1       1     103
SPC1           1       1     104
SPC1           1       1     105
SPC1           1       1     106
SPC1           1       1     107
SPC1           1  123456     108
SPC1           1       2     109
SPC1           1       2     110
SPC1           1       2     111
SPC1           1       2     112
SPC1           1       2     113
SPC1           1       2     114
SPC1           1       2     115
$ ... 44 like lines cut
$ Femap Property 1 : MEMBRANE Property
PSHELL         1       1     .25                                      0.
$ Femap Material 1 : 2024-T351 Al Plate: t = 0.25 to 0.5 inches
MAT1           1  1.07+7             .332.5906-4 1.255-5     70.        +       
+         42000.  40000.  38000.
MAT4           1.0016435  83.0762.5906-4                        
GRID           1       05.992988.3749992      0.       0
GRID           5       05.992988.7499985      0.       0
GRID           9       05.742989 .999998      0.       0
GRID          13       05.367989 .999998      0.       0
GRID          26       06.492987.3749993      0.       0
GRID          30       06.492987.7499985      0.       0
GRID          46       05.3679891.392914      0.       0
GRID          51       09.592981.7499985      0.       0
GRID          52       09.399231.7499985      0.       0
GRID          53       09.205482.7499985      0.       0
GRID          54       09.011732.7499985      0.       0
GRID          55       08.817982.7499985      0.       0
GRID          56       08.624233.7499985      0.       0
GRID          57       08.430483.7499985      0.       0
GRID          58       08.236734.7499985      0.       0
GRID          59       08.042984.7499985      0.       0
GRID          60       07.849234.7499985      0.       0
GRID          61       07.655485.7499985      0.       0
GRID          62       07.461735.7499985      0.       0
GRID          63       07.267985.7499985      0.       0
$ ... 907 like lines cut
CQUAD4      2141       1    2055       1    2014    2056                
CQUAD4      2142       1    2056    2014    2015    2057                
CQUAD4      2143       1    2057    2015    2016    2058                
CQUAD4      2144       1    2058    2016    2017    2059                
CQUAD4      2145       1    2059    2017    2018    2060                
CQUAD4      2146       1    2060    2018    2019    2061                
CQUAD4      2147       1    2061    2019       5    2020                
CQUAD4      2148       1    2054    2055    2056    2062                
CQUAD4      2149       1    2062    2056    2057    2063                
CQUAD4      2150       1    2063    2057    2058    2064                
CQUAD4      2151       1    2064    2058    2059    2065                
CQUAD4      2152       1    2065    2059    2060    2066                
CQUAD4      2153       1    2066    2060    2061    2067                
CQUAD4      2154       1    2067    2061    2020    2021                
CQUAD4      2155       1    2053    2054    2062    2068                
CQUAD4      2156       1    2068    2062    2063    2069                
CQUAD4      2157       1    2069    2063    2064    2070                
CQUAD4      2158       1    2070    2064    2065    2071                
CQUAD4      2159       1    2071    2065    2066    2072                
CQUAD4      2160       1    2072    2066    2067    2073                
$ ... 185 like lines cut
CTRIA3      3055       1    2823    2833    2822                        
CTRIA3      3056       1    2821    2832      46                        
CQUAD4      3057       1    2848    2843    2838    2836                
CTRIA3      3058       1    2822    2832    2821                        
CQUAD4      3059       1    3120    3121    2049    3122                
CQUAD4      3060       1    3118    3120    3122    3117                
CQUAD4      3061       1    3117    3122    2049    2048                
CQUAD4      3062       1    3121    3119    2050    2049                
CQUAD4      3063       1    3119    3409    2051    2050                
CQUAD4      3064       1    3409    3113    2052    2051                
CQUAD4      3065       1    3117    2048    2047    3116                
CQUAD4      3066       1    3116    2047    2046    3115                
CQUAD4      3067       1    3123    3117    3116    3124                
CQUAD4      3068       1    3124    3116    3115    3108                
CQUAD4      3069       1    3125    3118    3117    3123                
CQUAD4      3070       1    3110    3111    3118    3125                
CQUAD4      3071       1    3115    2046    2045    3126                
CQUAD4      3072       1    3108    3115    3126    3107                
CQUAD4      3073       1    3126    2045    2044    3107                
CQUAD4      3074       1    3406    2042    2041    3105                
CTRIA3      3075       1    3100    3106    3406                        
CQUAD4      3076       1    3105    2041      13    3099                
CQUAD4      3077       1    3107    2044    2043    3106                
CQUAD4      3078       1    3113    3404    2053    2052                
CQUAD4      3079       1    3404    3114    2054    2053                
CQUAD4      3080       1    3114    3097    2055    2054                
CQUAD4      3081       1    3091    3092    3097    3114                
CQUAD4      3082       1    3091    3114    3404    3113                
CQUAD4      3083       1    3090    3091    3113    3112                
CQUAD4      3084       1    3089    3090    3112    3111                
CQUAD4      3085       1    3088    3089    3111    3110                
CQUAD4      3086       1    3100    3406    3105    3099                
CQUAD4      3087       1    3101    3107    3106    3100                
CQUAD4      3088       1    3102    3108    3107    3101                
CQUAD4      3089       1    3099      13    2826    3098                
CQUAD4      3090       1    3103    3109    3108    3102                
CQUAD4      3091       1    3098    2826    2825    3052                
CQUAD4      3092       1    3147    3145    3139    3140                
CQUAD4      3093       1    3146    3144    3145    3147                
CQUAD4      3094       1    3146    3147    3140    3141                
CQUAD4      3095       1    3137    3146    3141    3136                
$ ... 609 like lines cut
ENDDATA 02fc9a30
