INIT MASTER(S)
NASTRAN SYSTEM(442)=-1,SYSTEM(319)=1
ID FFinalM,FEMAP
SOL SESTATIC
CEND
  TITLE = Simcenter Nastran Static Analysis Set
  ECHO = NONE
  DISPLACEMENT(PLOT) = ALL
  SPCFORCE(PLOT) = ALL
  OLOAD(PLOT) = ALL
  FORCE(PLOT,CORNER) = ALL
  STRESS(PLOT,CORNER) = ALL
  SPC = 1
  LOAD = 1
BEGIN BULK
$ ***************************************************************************
$   Written by : Femap
$   Version    : 2412.0
$   Translator : Simcenter Nastran
$   From Model : C:\Documents\Grad_School\!AE_Masters_Project\AE_Masters_Project\Nastran\!FinalModels\CompoundTensionStrip3\CompoundTensionStrip_CQ4_13.modfem
$   Date       : Mon Nov 24 15:31:53 2025
$   Output To  : C:\Documents\Grad_School\!AE_Masters_Project\AE_Masters_Project\Nastran\!FinalModels\CompoundTensionStrip3\
$ ***************************************************************************
$
PARAM,PRGPST,NO
PARAM,POST,0
PARAM,OGEOM,NO
PARAM,AUTOSPC,YES
PARAM,K6ROT,100.
PARAM,GRDPNT,0
CORD2C         1       0      0.      0.      0.      0.      0.      1.+FEMAPC1
+FEMAPC1      1.      0.      1.        
CORD2S         2       0      0.      0.      0.      0.      0.      1.+FEMAPC2
+FEMAPC2      1.      0.      1.        
$ Femap Load Set 1 : Untitled
FORCE          1      51       0      1.    125.      0.      0.
FORCE          1     159       0      1.    125.      0.      0.
FORCE          1     160       0      1.    250.      0.      0.
FORCE          1     161       0      1.    250.      0.      0.
FORCE          1     162       0      1.    250.      0.      0.
$ Femap Constraint Set 1 : Untitled
SPC1           1       1      96
SPC1           1       1      97
SPC1           1       1      98
SPC1           1       1      99
SPC1           1       1     100
SPC1           1       1     101
SPC1           1       1     102
SPC1           1       1     103
SPC1           1       1     104
SPC1           1       1     105
SPC1           1       1     106
SPC1           1       1     107
SPC1           1  123456     108
SPC1           1       2     109
SPC1           1       2     110
SPC1           1       2     111
SPC1           1       2     112
SPC1           1       2     113
SPC1           1       2     114
SPC1           1       2     115
$ ... 44 like lines cut
$ Femap Property 1 : MEMBRANE Property
PSHELL         1       1     .25                                      0.
$ Femap Material 1 : 2024-T351 Al Plate: t = 0.25 to 0.5 inches
MAT1           1  1.07+7             .332.5906-4 1.255-5     70.        +       
+         42000.  40000.  38000.
MAT4           1.0016435  83.0762.5906-4                        
GRID           1       05.992988.3749992      0.       0
GRID           5       05.992988.7499985      0.       0
GRID           9       05.742989 .999998      0.       0
GRID          13       05.367989 .999998      0.       0
GRID          26       06.492987.3749993      0.       0
GRID          30       06.492987.7499985      0.       0
GRID          46       05.3679891.392914      0.       0
GRID          51       09.592981.7499985      0.       0
GRID          52       09.399231.7499985      0.       0
GRID          53       09.205482.7499985      0.       0
GRID          54       09.011732.7499985      0.       0
GRID          55       08.817982.7499985      0.       0
GRID          56       08.624233.7499985      0.       0
GRID          57       08.430483.7499985      0.       0
GRID          58       08.236734.7499985      0.       0
GRID          59       08.042984.7499985      0.       0
GRID          60       07.849234.7499985      0.       0
GRID          61       07.655485.7499985      0.       0
GRID          62       07.461735.7499985      0.       0
GRID          63       07.267985.7499985      0.       0
$ ... 752 like lines cut
CQUAD4      1530       1    1490       1     956    1491                
CQUAD4      1531       1    1491     956     957    1492                
CQUAD4      1532       1    1492     957     958    1493                
CQUAD4      1533       1    1493     958     959    1494                
CQUAD4      1534       1    1494     959       5    1467                
CQUAD4      1535       1    1489    1490    1491    1495                
CQUAD4      1536       1    1495    1491    1492    1496                
CQUAD4      1537       1    1496    1492    1493    1497                
CQUAD4      1538       1    1497    1493    1494    1498                
CQUAD4      1539       1    1498    1494    1467    1468                
CQUAD4      1540       1    1488    1489    1495    1499                
CQUAD4      1541       1    1499    1495    1496    1500                
CQUAD4      1542       1    1500    1496    1497    1501                
CQUAD4      1543       1    1501    1497    1498    1502                
CQUAD4      1544       1    1502    1498    1468    1469                
CQUAD4      1545       1    1487    1488    1499    1503                
CQUAD4      1546       1    1503    1499    1500    1504                
CQUAD4      1547       1    1504    1500    1501    1505                
CQUAD4      1548       1    1505    1501    1502    1506                
CQUAD4      1549       1    1506    1502    1469    1470                
$ ... 92 like lines cut
CTRIA3      2153       1    2016    2022    2015                        
CTRIA3      2154       1    2014    2021      46                        
CQUAD4      2155       1    2029    2027    2022    2016                
CTRIA3      2156       1    2015    2021    2014                        
CQUAD4      2157       1    2325    1484    2333    2324                
CQUAD4      2158       1    2325    2332    1485    1484                
CQUAD4      2159       1    2333    1484    1483    2334                
CQUAD4      2160       1    2324    2333    2334    2323                
CQUAD4      2161       1    2334    1483    1482    2546                
CQUAD4      2162       1    2335    2331    1487    1486                
CQUAD4      2163       1    2332    2335    1486    1485                
CQUAD4      2164       1    2327    2328    2335    2332                
CQUAD4      2165       1    2326    2327    2332    2325                
CQUAD4      2166       1    2328    2329    2331    2335                
CQUAD4      2167       1    2329    1488    1487    2331                
CQUAD4      2168       1    2546    1482    1481    2322                
CQUAD4      2169       1    2329    2330    1489    1488                
CQUAD4      2170       1    2330    2319    1490    1489                
CQUAD4      2171       1    2337    2336    2329    2328                
CQUAD4      2172       1    2338    2337    2328    2327                
CQUAD4      2173       1    2316    2317    2337    2338                
CQUAD4      2174       1    2316    2338    2327    2326                
CQUAD4      2175       1    2336    2339    2330    2329                
CQUAD4      2176       1    2339    2318    2319    2330                
$ ... 425 like lines cut
CTRIA3      2602       1    2039    2467    2038                        
CQUAD4      2603       1     150     151    2433    2467                
CQUAD4      2604       1    2472    2471    2034    2035                
CQUAD4      2605       1     153     154    2471    2472                
CQUAD4      2606       1     152     153    2472    2469                
CQUAD4      2607       1    2469    2472    2035    2036                
CQUAD4      2608       1    2471    2470    2033    2034                
CQUAD4      2609       1     154     155    2470    2471                
CQUAD4      2610       1    2470    2468    2032    2033                
CQUAD4      2611       1     155     156    2468    2470                
CQUAD4      2612       1     151     152    2469    2433                
CQUAD4      2613       1    2433    2469    2036    2037                
CQUAD4      2614       1    2468    2432    2031    2032                
CQUAD4      2615       1     156     157    2432    2468                
CQUAD4      2616       1    2432    2431    2030    2031                
CQUAD4      2617       1     157     158    2431    2432                
CQUAD4      2618       1    2431     160     161    2030                
CQUAD4      2619       1     158     159     160    2431                
CQUAD4      2620       1    2483    2484    2486    2485                
CQUAD4      2621       1    2485    2486    2480    2481                
CQUAD4      2622       1    2484    2482    2480    2486                
$ ... 122 like lines cut
ENDDATA ebb7ac9c
