INIT MASTER(S)
NASTRAN SYSTEM(442)=-1,SYSTEM(319)=1
ID HoleInP,FEMAP
SOL SESTATIC
CEND
  TITLE = Simcenter Nastran Static Analysis Set
  ECHO = NONE
  DISPLACEMENT(PLOT) = ALL
  SPCFORCE(PLOT) = ALL
  OLOAD(PLOT) = ALL
  FORCE(PLOT,CORNER) = ALL
  STRESS(PLOT,CORNER) = ALL
  SPC = 1
  LOAD = 1
BEGIN BULK
$ ***************************************************************************
$   Written by : Femap
$   Version    : 2412.0
$   Translator : Simcenter Nastran
$   From Model : C:\Documents\Grad_School\!AE_Masters_Project\AE_Masters_Project\Nastran\HoleInPlate\HoleInPlate.modfem
$   Date       : Tue Nov 18 22:24:08 2025
$   Output To  : C:\Documents\Grad_School\!AE_Masters_Project\AE_Masters_Project\Nastran\HoleInPlate\
$ ***************************************************************************
$
PARAM,PRGPST,NO
PARAM,POST,0
PARAM,OGEOM,NO
PARAM,AUTOSPC,YES
PARAM,K6ROT,100.
PARAM,GRDPNT,0
CORD2C         1       0      0.      0.      0.      0.      0.      1.+FEMAPC1
+FEMAPC1      1.      0.      1.        
CORD2S         2       0      0.      0.      0.      0.      0.      1.+FEMAPC2
+FEMAPC2      1.      0.      1.        
$ Femap Coordinate System 10 : Cylindrical Coordinate System
CORD2C        10       0      3.      3.      0.      3.      3.      1.+       
+             4.      3.      0.        
$ Femap Load Set 1 : Untitled
FORCE          1   30044       0      1.    200.      0.      0.
FORCE          1   30628       0      1.    200.      0.      0.
FORCE          1   30629       0      1.    200.      0.      0.
FORCE          1   30630       0      1.    200.      0.      0.
FORCE          1   30631       0      1.    200.      0.      0.
FORCE          1   30632       0      1.    200.      0.      0.
FORCE          1   30633       0      1.    200.      0.      0.
FORCE          1   30634       0      1.    200.      0.      0.
FORCE          1   30635       0      1.    200.      0.      0.
FORCE          1   30636       0      1.    200.      0.      0.
FORCE          1   30637       0      1.    200.      0.      0.
FORCE          1   30638       0      1.    200.      0.      0.
FORCE          1   30639       0      1.    200.      0.      0.
FORCE          1   30640       0      1.    200.      0.      0.
FORCE          1   30641       0      1.    200.      0.      0.
FORCE          1   30642       0      1.    200.      0.      0.
FORCE          1   30643       0      1.    200.      0.      0.
FORCE          1   30644       0      1.    200.      0.      0.
FORCE          1   30645       0      1.    200.      0.      0.
FORCE          1   30646       0      1.    200.      0.      0.
$ ... 31 like lines cut
$ Femap Constraint Set 1 : Untitled
SPC1           1  123456   26443
SPC1           1   13456   28560
SPC1           1   13456   28561
SPC1           1   13456   28562
SPC1           1   13456   28563
SPC1           1   13456   28564
SPC1           1   13456   28565
SPC1           1   13456   28566
SPC1           1   13456   28567
SPC1           1   13456   28568
SPC1           1   13456   28569
SPC1           1   13456   28570
SPC1           1   13456   28571
SPC1           1   13456   28572
SPC1           1   13456   28573
SPC1           1   13456   28574
SPC1           1   13456   28575
SPC1           1   13456   28576
SPC1           1   13456   28577
SPC1           1   13456   28578
$ ... 31 like lines cut
$ Femap Property 1 : PLATE Property
PSHELL         1       1     .25       1               1              0.
$ Femap Material 1 : 2024-T351 Al Plate: t = 0.25 to 0.5 inches
MAT1           1  1.07+7             .332.5906-4 1.255-5     70.        +       
+         42000.  40000.  38000.
MAT4           1.0016435  83.0762.5906-4                        
GRID           1       0    2.25      3.      0.       0
GRID          33       0    3.75      3.      0.       0
GRID          34       0    3.25      3.      0.       0
GRID          50       0    2.75      3.      0.       0
GRID        4064       0    2.35      3.      0.       0
GRID        4065       0    2.45      3.      0.       0
GRID        4066       0    2.55      3.      0.       0
GRID        4067       0    2.65      3.      0.       0
GRID        4075       0    3.35      3.      0.       0
GRID        4076       0    3.45      3.      0.       0
GRID        4077       0    3.55      3.      0.       0
GRID        4078       0    3.65      3.      0.       0
GRID        4318       0     2.3      3.      0.       0
GRID        4319       0     2.4      3.      0.       0
GRID        4320       0     2.5      3.      0.       0
GRID        4321       0     2.6      3.      0.       0
GRID        4322       0     2.7      3.      0.       0
GRID        4338       0     3.3      3.      0.       0
GRID        4339       0     3.4      3.      0.       0
GRID        4340       0     3.5      3.      0.       0
$ ... 2880 like lines cut
CQUAD4     26234       1    4322      50   27058   27073                
CQUAD4     26235       1   27073   27058   27059   27074                
CQUAD4     26236       1   27074   27059   27060   27075                
CQUAD4     26237       1   27075   27060   27061   27076                
CQUAD4     26238       1   27061   27062   27077   27076                
CQUAD4     26239       1   27062   27063   27078   27077                
CQUAD4     26240       1   27063   27064   27079   27078                
CQUAD4     26241       1   27064   27065   27080   27079                
CQUAD4     26242       1   27065   27066   27081   27080                
CQUAD4     26243       1   27066   27067   27082   27081                
CQUAD4     26244       1   27067   27068   27083   27082                
CQUAD4     26245       1   27068   27069   27084   27083                
CQUAD4     26246       1   27070   27085   27084   27069                
CQUAD4     26247       1   27071   27086   27085   27070                
CQUAD4     26248       1   27072   27087   27086   27071                
CQUAD4     26249       1      34    4338   27087   27072                
CQUAD4     26250       1    4067    4322   27073   27088                
CQUAD4     26251       1   27088   27073   27074   27089                
CQUAD4     26252       1   27089   27074   27075   27090                
CQUAD4     26253       1   27090   27075   27076   27091                
$ ... 2764 like lines cut
ENDDATA 5e8ec03d
