INIT MASTER(S)
NASTRAN SYSTEM(442)=-1,SYSTEM(319)=1
ID Distort,FEMAP
SOL SESTATIC
CEND
  TITLE = Simcenter Nastran Static Analysis Set
  ECHO = NONE
  DISPLACEMENT(PLOT) = ALL
  SPCFORCE(PLOT) = ALL
  OLOAD(PLOT) = ALL
  FORCE(PLOT,CORNER) = ALL
  STRESS(PLOT,CORNER) = ALL
  SPC = 1
  LOAD = 1
BEGIN BULK
$ ***************************************************************************
$   Written by : Femap
$   Version    : 2412.0
$   Translator : Simcenter Nastran
$   From Model : C:\Documents\Grad_School\!AE_Masters_Project\AE_Masters_Project\Nastran\DistortedPlate\DistortedPlate.modfem
$   Date       : Mon Nov 17 18:07:59 2025
$   Output To  : C:\Documents\Grad_School\!AE_Masters_Project\AE_Masters_Project\Nastran\DistortedPlate\
$ ***************************************************************************
$
PARAM,PRGPST,NO
PARAM,POST,0
PARAM,OGEOM,NO
PARAM,AUTOSPC,YES
PARAM,K6ROT,100.
PARAM,GRDPNT,0
CORD2C         1       0      0.      0.      0.      0.      0.      1.+FEMAPC1
+FEMAPC1      1.      0.      1.        
CORD2S         2       0      0.      0.      0.      0.      0.      1.+FEMAPC2
+FEMAPC2      1.      0.      1.        
$ Femap Load Set 1 : Untitled
FORCE          1    4447       0      1.    100.      0.      0.
FORCE          1    4448       0      1.    200.      0.      0.
FORCE          1    4449       0      1.    200.      0.      0.
FORCE          1    4450       0      1.    200.      0.      0.
FORCE          1    4451       0      1.    200.      0.      0.
FORCE          1    4452       0      1.    200.      0.      0.
FORCE          1    4453       0      1.    200.      0.      0.
FORCE          1    4454       0      1.    200.      0.      0.
FORCE          1    4455       0      1.    200.      0.      0.
FORCE          1    4456       0      1.    200.      0.      0.
FORCE          1    4457       0      1.    200.      0.      0.
FORCE          1    4458       0      1.    200.      0.      0.
FORCE          1    4459       0      1.    200.      0.      0.
FORCE          1    4460       0      1.    200.      0.      0.
FORCE          1    4461       0      1.    200.      0.      0.
FORCE          1    4462       0      1.    200.      0.      0.
FORCE          1    4463       0      1.    200.      0.      0.
FORCE          1    4464       0      1.    200.      0.      0.
FORCE          1    4465       0      1.    200.      0.      0.
FORCE          1    4466       0      1.    200.      0.      0.
$ ... 31 like lines cut
$ Femap Constraint Set 1 : Untitled
SPC1           1  123456    4397
SPC1           1  123456    4547
SPC1           1  123456    4548
SPC1           1  123456    4549
SPC1           1  123456    4550
SPC1           1  123456    4551
SPC1           1  123456    4552
SPC1           1  123456    4553
SPC1           1  123456    4554
SPC1           1  123456    4555
SPC1           1  123456    4556
SPC1           1  123456    4557
SPC1           1  123456    4558
SPC1           1  123456    4559
SPC1           1  123456    4560
SPC1           1  123456    4561
SPC1           1  123456    4562
SPC1           1  123456    4563
SPC1           1  123456    4564
SPC1           1  123456    4565
$ ... 31 like lines cut
$ Femap Property 1 : MEMBRANE Property
PSHELL         1       1     .25                                      0.
$ Femap Material 1 : 2024-T351 Al Plate: t = 0.25 to 0.5 inches
MAT1           1  1.07+7             .332.5906-4 1.255-5     70.        +       
+         42000.  40000.  38000.
MAT4           1.0016435  83.0762.5906-4                        
GRID          49       0     .25      0.      0.       0
GRID          54       0    -.25      0.      0.       0
GRID         455       0      0.    -.25      0.       0
GRID         460       0      0.     .25      0.       0
GRID        1202       0.1767767-.176777      0.       0
GRID        1209       0-.176777-.176777      0.       0
GRID        1216       0-.176777.1767767      0.       0
GRID        1223       0.1767767.1767767      0.       0
GRID        4397       0     -1.     -1.      0.       0
GRID        4398       0    -.96     -1.      0.       0
GRID        4399       0    -.92     -1.      0.       0
GRID        4400       0    -.88     -1.      0.       0
GRID        4401       0    -.84     -1.      0.       0
GRID        4402       0     -.8     -1.      0.       0
GRID        4403       0    -.76     -1.      0.       0
GRID        4404       0    -.72     -1.      0.       0
GRID        4405       0    -.68     -1.      0.       0
GRID        4406       0    -.64     -1.      0.       0
GRID        4407       0     -.6     -1.      0.       0
GRID        4408       0    -.56     -1.      0.       0
$ ... 2633 like lines cut
CQUAD4      4190       1    5954    5941    5350    5351                
CQUAD4      4191       1    5953    5940    5941    5954                
CQUAD4      4192       1    5952    5953    5954    5951                
CQUAD4      4193       1    5951    5954    5351    5352                
CQUAD4      4194       1    5950    5939    5940    5953                
CQUAD4      4195       1    5949    5950    5953    5952                
CQUAD4      4196       1    5956    5951    5352    5353                
CQUAD4      4197       1    5955    5952    5951    5956                
CQUAD4      4198       1    5894    5955    5956    5893                
CQUAD4      4199       1    5893    5956    5353    5354                
CQUAD4      4200       1    5948    5949    5952    5955                
CQUAD4      4201       1    5895    5948    5955    5894                
CQUAD4      4202       1    5896    5945    5948    5895                
CQUAD4      4203       1    5945    5946    5949    5948                
CQUAD4      4204       1    5946    5947    5950    5949                
CQUAD4      4205       1    5947    5938    5939    5950                
CQUAD4      4206       1    5897    5942    5945    5896                
CQUAD4      4207       1    5942    5943    5946    5945                
CQUAD4      4208       1    5943    5944    5947    5946                
CQUAD4      4209       1    5944    5937    5938    5947                
$ ... 2532 like lines cut
ENDDATA 70f0bf96
