INIT MASTER(S)
NASTRAN SYSTEM(442)=-1,SYSTEM(319)=1
ID Distort,FEMAP
SOL SESTATIC
CEND
  TITLE = Simcenter Nastran Static Analysis Set
  ECHO = NONE
  DISPLACEMENT(PLOT) = ALL
  SPCFORCE(PLOT) = ALL
  OLOAD(PLOT) = ALL
  FORCE(PLOT,CORNER) = ALL
  STRESS(PLOT,CORNER) = ALL
  SPC = 1
  LOAD = 1
BEGIN BULK
$ ***************************************************************************
$   Written by : Femap
$   Version    : 2412.0
$   Translator : Simcenter Nastran
$   From Model : C:\Documents\Grad_School\!AE_Masters_Project\AE_Masters_Project\Nastran\DistortedPlate\DistortedPlate.modfem
$   Date       : Sun Nov 16 20:18:33 2025
$   Output To  : C:\Documents\Grad_School\!AE_Masters_Project\AE_Masters_Project\Nastran\DistortedPlate\
$ ***************************************************************************
$
PARAM,PRGPST,NO
PARAM,POST,0
PARAM,OGEOM,NO
PARAM,AUTOSPC,YES
PARAM,K6ROT,100.
PARAM,GRDPNT,0
CORD2C         1       0      0.      0.      0.      0.      0.      1.+FEMAPC1
+FEMAPC1      1.      0.      1.        
CORD2S         2       0      0.      0.      0.      0.      0.      1.+FEMAPC2
+FEMAPC2      1.      0.      1.        
$ Femap Load Set 1 : Untitled
FORCE          1      13       0      1.416.6667      0.      0.
FORCE          1      14       0      1.833.3333      0.      0.
FORCE          1      15       0      1.833.3333      0.      0.
FORCE          1      16       0      1.833.3333      0.      0.
FORCE          1      17       0      1.833.3333      0.      0.
FORCE          1      18       0      1.833.3333      0.      0.
FORCE          1      19       0      1.833.3333      0.      0.
FORCE          1      20       0      1.833.3333      0.      0.
FORCE          1      21       0      1.833.3333      0.      0.
FORCE          1      22       0      1.833.3333      0.      0.
FORCE          1      23       0      1.833.3333      0.      0.
FORCE          1      24       0      1.833.3333      0.      0.
FORCE          1      25       0      1.416.6667      0.      0.
$ Femap Constraint Set 1 : Untitled
SPC1           1  123456       1
SPC1           1  123456      37
SPC1           1  123456      38
SPC1           1  123456      39
SPC1           1  123456      40
SPC1           1  123456      41
SPC1           1  123456      42
SPC1           1  123456      43
SPC1           1  123456      44
SPC1           1  123456      45
SPC1           1  123456      46
SPC1           1  123456      47
SPC1           1  123456      48
$ Femap Property 1 : MEMBRANE Property
PSHELL         1       1     .25                                      0.
$ Femap Material 1 : 2024-T351 Al Plate: t = 0.25 to 0.5 inches
MAT1           1  1.07+7             .332.5906-4 1.255-5     70.        +       
+         42000.  40000.  38000.
MAT4           1.0016435  83.0762.5906-4                        
GRID           1       0     -1.     -1.      0.       0
GRID           2       0-.833333     -1.      0.       0
GRID           3       0-.666667     -1.      0.       0
GRID           4       0     -.5     -1.      0.       0
GRID           5       0-.333333     -1.      0.       0
GRID           6       0-.166667     -1.      0.       0
GRID           7       0      0.     -1.      0.       0
GRID           8       0.1666667     -1.      0.       0
GRID           9       0.3333333     -1.      0.       0
GRID          10       0      .5     -1.      0.       0
GRID          11       0.6666667     -1.      0.       0
GRID          12       0.8333333     -1.      0.       0
GRID          13       0      1.     -1.      0.       0
GRID          14       0      1.-.833333      0.       0
GRID          15       0      1.-.666667      0.       0
GRID          16       0      1.     -.5      0.       0
GRID          17       0      1.-.333333      0.       0
GRID          18       0      1.-.166667      0.       0
GRID          19       0      1.      0.      0.       0
GRID          20       0      1..1666667      0.       0
$ ... 161 like lines cut
CQUAD4         1       1      57      58      93     172                
CQUAD4         2       1      55      56      94      95                
CQUAD4         3       1      58      99      92      93                
CQUAD4         4       1      75      55      95      74                
CQUAD4         5       1      76      54      55      75                
CQUAD4         6       1      49      62      99      58                
CQUAD4         7       1      99      98      91      92                
CQUAD4         8       1      62      61      98      99                
CQUAD4         9       1      98      97      90      91                
CQUAD4        10       1      61      60      97      98                
CQUAD4        11       1      97      96      89      90                
CQUAD4        12       1      60      59      96      97                
CQUAD4        13       1      96      20      21      89                
CQUAD4        14       1      59      19      20      96                
CQUAD4        15       1      82     171      52      53                
CQUAD4        16       1      83      84      50      51                
CQUAD4        17       1      84      85     103      50                
CQUAD4        18       1      78      82      53      77                
CQUAD4        19       1      77      53      54      76                
CQUAD4        20       1      50     103      62      49                
$ ... 136 like lines cut
ENDDATA 835caa46
