INIT MASTER(S)
NASTRAN SYSTEM(442)=-1,SYSTEM(319)=1
ID FFinalM,FEMAP
SOL SESTATIC
CEND
  TITLE = Simcenter Nastran Static Analysis Set
  ECHO = NONE
  DISPLACEMENT(PLOT) = ALL
  SPCFORCE(PLOT) = ALL
  OLOAD(PLOT) = ALL
  FORCE(PLOT,CORNER) = ALL
  STRESS(PLOT,CORNER) = ALL
  SPC = 1
  LOAD = 1
BEGIN BULK
$ ***************************************************************************
$   Written by : Femap
$   Version    : 2412.0
$   Translator : Simcenter Nastran
$   From Model : C:\Documents\Grad_School\!AE_Masters_Project\AE_Masters_Project\Nastran\!FinalModels\TensionPlate\PyDFEM\TensionPlate_PyDFEM.modfem
$   Date       : Sun Nov 23 13:43:46 2025
$   Output To  : C:\Documents\Grad_School\!AE_Masters_Project\AE_Masters_Project\Nastran\!FinalModels\TensionPlate\PyDFEM\
$ ***************************************************************************
$
PARAM,PRGPST,NO
PARAM,POST,-1
PARAM,OGEOM,NO
PARAM,AUTOSPC,YES
PARAM,K6ROT,100.
PARAM,GRDPNT,0
CORD2C         1       0      0.      0.      0.      0.      0.      1.+FEMAPC1
+FEMAPC1      1.      0.      1.        
CORD2S         2       0      0.      0.      0.      0.      0.      1.+FEMAPC2
+FEMAPC2      1.      0.      1.        
$ Femap Load Set 1 : Untitled
FORCE          1     475       0      1.833.3333      0.      0.
FORCE          1     531       0      1.833.3333      0.      0.
FORCE          1     532       0      1.833.3333      0.      0.
FORCE          1     533       0      1.833.3333      0.      0.
FORCE          1     534       0      1.833.3333      0.      0.
FORCE          1     535       0      1.833.3333      0.      0.
FORCE          1     536       0      1.416.6667      0.      0.
FORCE          1     469       0      1.416.6667      0.      0.
FORCE          1     470       0      1.833.3333      0.      0.
FORCE          1     471       0      1.833.3333      0.      0.
FORCE          1     472       0      1.833.3333      0.      0.
FORCE          1     473       0      1.833.3333      0.      0.
FORCE          1     474       0      1.833.3333      0.      0.
$ Femap Constraint Set 1 : Untitled
SPC1           1  123456     396
SPC1           1   13456     397
SPC1           1   13456     398
SPC1           1   13456     399
SPC1           1   13456     400
SPC1           1   13456     401
SPC1           1   13456     402
SPC1           1   13456     603
SPC1           1   13456     604
SPC1           1   13456     605
SPC1           1   13456     606
SPC1           1   13456     607
SPC1           1   13456     608
$ Femap Property 1 : PLATE Property
PSHELL         1       1     .25       1               1              0.
$ Femap Material 1 : 2024-T351 Al Plate: t = 0.25 to 0.5 inches
MAT1           1  1.07+7             .332.5906-4 1.255-5     70.        +       
+         42000.  40000.  38000.
MAT4           1.0016435  83.0762.5906-4                        
GRID           1       0     3.5      3.      0.       0
GRID           2       03.4903033.097999      0.       0
GRID           3       03.4619393.191341      0.       0
GRID           4       03.4159933.277401      0.       0
GRID           5       03.3535533.353553      0.       0
GRID           6       03.2774013.415993      0.       0
GRID           7       03.1913413.461939      0.       0
GRID           8       03.0979993.490303      0.       0
GRID           9       0      3.     3.5      0.       0
GRID          10       02.9020013.490303      0.       0
GRID          11       02.8086593.461939      0.       0
GRID          12       02.7225993.415993      0.       0
GRID          13       02.6464473.353553      0.       0
GRID          14       02.5840073.277401      0.       0
GRID          15       02.5380613.191341      0.       0
GRID          16       02.5096973.097999      0.       0
GRID          17       0     2.5      3.      0.       0
GRID          18       0    2.75      3.      0.       0
GRID          19       02.754848   3.049      0.       0
GRID          20       02.7690313.095671      0.       0
$ ... 544 like lines cut
CQUAD8        33       1     164       1       2     165     197      35+       
+            195     196                                                
CQUAD8        34       1     165       2       3     166     195      39+       
+            198     199                                                
CQUAD8        35       1     166       3       4     167     198      42+       
+            200     201                                                
CQUAD8        36       1     167       4       5     168     200      45+       
+            202     203                                                
CQUAD8        37       1     169     168       5       6     205     202+       
+             48     204                                                
CQUAD8        38       1     170     169       6       7     207     204+       
+             51     206                                                
CQUAD8        39       1     171     170       7       8     209     206+       
+             54     208                                                
CQUAD8        40       1     172     171       8       9     211     208+       
+             57     210                                                
CQUAD8        41       1     173     172       9      10     213     210+       
+             60     212                                                
CQUAD8        42       1     174     173      10      11     215     212+       
+             63     214                                                
CQUAD8        43       1     175     174      11      12     217     214+       
+             66     216                                                
CQUAD8        44       1     176     175      12      13     219     216+       
+             69     218                                                
CQUAD8        45       1      14     177     176      13     220     221+       
+            218      72                                                
CQUAD8        46       1      15     178     177      14     222     223+       
+            220      75                                                
CQUAD8        47       1      16     179     178      15     224     225+       
+            222      78                                                
CQUAD8        48       1      17     161     179      16     226     227+       
+            224      81                                                
CQUAD8        49       1     163     164     165     180      38     196+       
+            228     229                                                
CQUAD8        50       1     180     165     166     181     228     199+       
+            230     231                                                
CQUAD8        51       1     181     166     167     182     230     201+       
+            232     233                                                
CQUAD8        52       1     182     167     168     183     232     203+       
+            234     235                                                
$ ... 152 like lines cut
CQUAD4       129       1     428      86      85     429                
CQUAD4       130       1     420     425     428     429                
CQUAD4       131       1     429      85      84     430                
CQUAD4       132       1     420     429     430     392                
CQUAD4       134       1     428     427      87      86                
CQUAD4       135       1     425     426     427     428                
CQUAD4       136       1     427     424      88      87                
CQUAD4       137       1     426     423     424     427                
CQUAD4       138       1     432     431     426     425                
CQUAD4       139       1     421     422     431     432                
CQUAD4       140       1     431     422     423     426                
CQUAD4       141       1     449     432     425     420                
CQUAD4       142       1     424     434      89      88                
CQUAD4       143       1     434     433      90      89                
CQUAD4       144       1     423     433     434     424                
CQUAD4       145       1     433     412      91      90                
CQUAD4       146       1     422     412     433     423                
CQUAD4       147       1     419     411     412     422                
CQUAD4       148       1     418     419     422     421                
CQUAD4       149       1     415     418     421     414                
$ ... 184 like lines cut
ENDDATA f96b4536
