INIT MASTER(S)
NASTRAN SYSTEM(442)=-1,SYSTEM(319)=1
ID FFinalM,FEMAP
SOL SESTATIC
CEND
  TITLE = Simcenter Nastran Static Analysis Set
  ECHO = NONE
  DISPLACEMENT(PLOT) = ALL
  SPCFORCE(PLOT) = ALL
  OLOAD(PLOT) = ALL
  FORCE(PLOT,CORNER) = ALL
  STRESS(PLOT,CORNER) = ALL
  SPC = 1
  LOAD = 1
BEGIN BULK
$ ***************************************************************************
$   Written by : Femap
$   Version    : 2412.0
$   Translator : Simcenter Nastran
$   From Model : C:\Documents\Grad_School\!AE_Masters_Project\AE_Masters_Project\Nastran\!FinalModels\TensionPlate\PyDFEM\TensionPlate_PyDFEM_Refined.modfem
$   Date       : Sun Nov 23 14:09:06 2025
$   Output To  : C:\Documents\Grad_School\!AE_Masters_Project\AE_Masters_Project\Nastran\!FinalModels\TensionPlate\PyDFEM\
$ ***************************************************************************
$
PARAM,PRGPST,NO
PARAM,POST,-1
PARAM,OGEOM,NO
PARAM,AUTOSPC,YES
PARAM,K6ROT,100.
PARAM,GRDPNT,0
CORD2C         1       0      0.      0.      0.      0.      0.      1.+FEMAPC1
+FEMAPC1      1.      0.      1.        
CORD2S         2       0      0.      0.      0.      0.      0.      1.+FEMAPC2
+FEMAPC2      1.      0.      1.        
$ Femap Load Set 1 : Untitled
FORCE          1     475       0      1.166.6667      0.      0.
FORCE          1   26270       0      1.166.6667      0.      0.
FORCE          1   26271       0      1.166.6667      0.      0.
FORCE          1   26272       0      1.166.6667      0.      0.
FORCE          1   26273       0      1.166.6667      0.      0.
FORCE          1   26274       0      1.166.6667      0.      0.
FORCE          1   26275       0      1.166.6667      0.      0.
FORCE          1   26276       0      1.166.6667      0.      0.
FORCE          1   26277       0      1.166.6667      0.      0.
FORCE          1   26278       0      1.166.6667      0.      0.
FORCE          1   26279       0      1.166.6667      0.      0.
FORCE          1   26280       0      1.166.6667      0.      0.
FORCE          1   26281       0      1.166.6667      0.      0.
FORCE          1   26282       0      1.166.6667      0.      0.
FORCE          1   26283       0      1.166.6667      0.      0.
FORCE          1   26284       0      1.166.6667      0.      0.
FORCE          1   26285       0      1.166.6667      0.      0.
FORCE          1   26286       0      1.166.6667      0.      0.
FORCE          1   26287       0      1.166.6667      0.      0.
FORCE          1   26288       0      1.166.6667      0.      0.
$ ... 41 like lines cut
$ Femap Constraint Set 1 : Untitled
SPC1           1  123456    3129
SPC1           1   13456   27317
SPC1           1   13456   27318
SPC1           1   13456   27319
SPC1           1   13456   27320
SPC1           1   13456   27321
SPC1           1   13456   27322
SPC1           1   13456   27323
SPC1           1   13456   27324
SPC1           1   13456   27325
SPC1           1   13456   27326
SPC1           1   13456   27327
SPC1           1   13456   27328
SPC1           1   13456   27329
SPC1           1   13456   27330
SPC1           1   13456   27331
SPC1           1   13456   27332
SPC1           1   13456   27333
SPC1           1   13456   27334
SPC1           1   13456   27335
$ ... 41 like lines cut
$ Femap Property 1 : PLATE Property
PSHELL         1       1     .25       1               1              0.
$ Femap Material 1 : 2024-T351 Al Plate: t = 0.25 to 0.5 inches
MAT1           1  1.07+7             .332.5906-4 1.255-5     70.        +       
+         42000.  40000.  38000.
MAT4           1.0016435  83.0762.5906-4                        
GRID           1       0     3.5      3.      0.       0
GRID           9       0      3.     3.5      0.       0
GRID          17       0     2.5      3.      0.       0
GRID          18       0    2.75      3.      0.       0
GRID          34       0    3.25      3.      0.       0
GRID          38       0   3.375      3.      0.       0
GRID          82       0   2.625      3.      0.       0
GRID          91       0      3.     2.5      0.       0
GRID         161       02.583333      3.      0.       0
GRID         162       02.666667      3.      0.       0
GRID         163       03.333333      3.      0.       0
GRID         164       03.416667      3.      0.       0
GRID         197       03.458333      3.      0.       0
GRID         226       02.541667      3.      0.       0
GRID         260       03.291667      3.      0.       0
GRID         275       02.708333      3.      0.       0
GRID         412       0      3.      2.      0.       0
GRID         475       0      6.      3.      0.       0
GRID         476       0     5.5      3.      0.       0
GRID         477       0      5.      3.      0.       0
$ ... 3948 like lines cut
CQUAD8     20534       1       1   22415   22437     164   22467   22468+       
+          22469     197                                                
CQUAD8     20535       1   22415   22416   22438   22437   22470   22471+       
+          22472   22468                                                
CQUAD8     20536       1   22416   22417   22439   22438   22473   22474+       
+          22475   22471                                                
CQUAD8     20537       1   22417   22418   22440   22439   22476   22477+       
+          22478   22474                                                
CQUAD8     20538       1   22418   22419   22441   22440   22479   22480+       
+          22481   22477                                                
CQUAD8     20539       1   22419   22420   22442   22441   22482   22483+       
+          22484   22480                                                
CQUAD8     20540       1   22420   22421   22443   22442   22485   22486+       
+          22487   22483                                                
CQUAD8     20541       1   22421       9   22444   22443   22488   22489+       
+          22490   22486                                                
CQUAD8     20542       1       9   19604   22445   22444   22491   22492+       
+          22493   22489                                                
CQUAD8     20543       1   19604   19605   22446   22445   22494   22495+       
+          22496   22492                                                
CQUAD8     20544       1   19605   19606   22447   22446   22497   22498+       
+          22499   22495                                                
CQUAD8     20545       1   19606   19607   22448   22447   22500   22501+       
+          22502   22498                                                
CQUAD8     20546       1   19607   19608   22449   22448   22503   22504+       
+          22505   22501                                                
CQUAD8     20547       1   19608   19609   22450   22449   22506   22507+       
+          22508   22504                                                
CQUAD8     20548       1   19609   19610   22451   22450   22509   22510+       
+          22511   22507                                                
CQUAD8     20549       1   19610      17     161   22451   22512     226+       
+          22513   22510                                                
CQUAD8     20550       1     164   22437   22452     163   22469   22514+       
+          22515      38                                                
CQUAD8     20551       1   22437   22438   22453   22452   22472   22516+       
+          22517   22514                                                
CQUAD8     20552       1   22438   22439   22454   22453   22475   22518+       
+          22519   22516                                                
CQUAD8     20553       1   22439   22440   22455   22454   22478   22520+       
+          22521   22518                                                
$ ... 56 like lines cut
CQUAD4     24146       1   26466   26468   26467   26465                
CQUAD4     24147       1   26397   26467   26468   26396                
CQUAD4     24148       1   26396   26468   26464   26395                
CQUAD4     24149       1   26463   26464   26468   26466                
CQUAD4     24150       1   26465   26467   26452   26453                
CQUAD4     24151       1   26398   26452   26467   26397                
CQUAD4     24152       1   26454   26460   26465   26453                
CQUAD4     24153       1   26466   26465   26460   26461                
CQUAD4     24154       1   26463   26466   26461   26462                
CQUAD4     24155       1   26457   26458   26463   26462                
CQUAD4     24156       1   26464   26463   26458   26459                
CQUAD4     24157       1   26395   26464   26459   26394                
CQUAD4     24158       1   26460   26470   26469   26461                
CQUAD4     24159       1   26448   26469   26470   26447                
CQUAD4     24160       1   26447   26470   26455   26446                
CQUAD4     24161       1   26454   26455   26470   26460                
CQUAD4     24162       1   26456   26471   26449   26450                
CQUAD4     24163       1   26448   26449   26471   26469                
CQUAD4     24164       1   26469   26471   26462   26461                
CQUAD4     24165       1   26457   26462   26471   26456                
$ ... 858 like lines cut
CQUAD8     25024       1      17   27149   27171     161   27201   27202+       
+          27203     226                                                
CQUAD8     25025       1   27149   27150   27172   27171   27204   27205+       
+          27206   27202                                                
CQUAD8     25026       1   27150   27151   27173   27172   27207   27208+       
+          27209   27205                                                
CQUAD8     25027       1   27151   27152   27174   27173   27210   27211+       
+          27212   27208                                                
CQUAD8     25028       1   27152   27153   27175   27174   27213   27214+       
+          27215   27211                                                
CQUAD8     25029       1   27153   27154   27176   27175   27216   27217+       
+          27218   27214                                                
CQUAD8     25030       1   27154   27155   27177   27176   27219   27220+       
+          27221   27217                                                
CQUAD8     25031       1   27155      91   27178   27177   27222   27223+       
+          27224   27220                                                
CQUAD8     25032       1      91   25223   27179   27178   27225   27226+       
+          27227   27223                                                
CQUAD8     25033       1   25223   25224   27180   27179   27228   27229+       
+          27230   27226                                                
CQUAD8     25034       1   25224   25225   27181   27180   27231   27232+       
+          27233   27229                                                
CQUAD8     25035       1   25225   25226   27182   27181   27234   27235+       
+          27236   27232                                                
CQUAD8     25036       1   25226   25227   27183   27182   27237   27238+       
+          27239   27235                                                
CQUAD8     25037       1   25227   25228   27184   27183   27240   27241+       
+          27242   27238                                                
CQUAD8     25038       1   25228   25229   27185   27184   27243   27244+       
+          27245   27241                                                
CQUAD8     25039       1   25229       1     164   27185   27246     197+       
+          27247   27244                                                
CQUAD8     25040       1     161   27171   27186     162   27203   27248+       
+          27249      82                                                
CQUAD8     25041       1   27171   27172   27187   27186   27206   27250+       
+          27251   27248                                                
CQUAD8     25042       1   27172   27173   27188   27187   27209   27252+       
+          27253   27250                                                
CQUAD8     25043       1   27173   27174   27189   27188   27212   27254+       
+          27255   27252                                                
$ ... 56 like lines cut
CQUAD4     25072       1   27499   27501   27500   27498                
CQUAD4     25073       1   27497   27500   27501   27496                
CQUAD4     25074       1   27496   27501   27493   27494                
CQUAD4     25075       1   27492   27493   27501   27499                
CQUAD4     25076       1   27498   27500   27480   27481                
CQUAD4     25077       1   27479   27480   27500   27497                
CQUAD4     25078       1    3142    3141   27498   27481                
CQUAD4     25079       1   27499   27498    3141    3140                
CQUAD4     25080       1   27492   27499    3140    3139                
CQUAD4     25081       1   27495   27503   27496   27494                
CQUAD4     25082       1   27497   27496   27503   27502                
CQUAD4     25083       1   27502   27503   27490   27491                
CQUAD4     25084       1   27489   27490   27503   27495                
CQUAD4     25085       1   27497   27502   27478   27479                
CQUAD4     25086       1   27477   27478   27502   27491                
CQUAD4     25087       1   27507   27509   27508   27506                
CQUAD4     25088       1   27505   27508   27509   27504                
CQUAD4     25089       1   27504   27509   27483   27484                
CQUAD4     25090       1   27482   27483   27509   27507                
CQUAD4     25091       1   27506   27508   27493   27492                
$ ... 2614 like lines cut
ENDDATA 74af43a8
