INIT MASTER(S)
NASTRAN SYSTEM(442)=-1,SYSTEM(319)=1
ID FFinalM,FEMAP
SOL SESTATIC
CEND
  TITLE = Simcenter Nastran Static Analysis Set
  ECHO = NONE
  DISPLACEMENT(PLOT) = ALL
  SPCFORCE(PLOT) = ALL
  OLOAD(PLOT) = ALL
  FORCE(PLOT,CORNER) = ALL
  STRESS(PLOT,CORNER) = ALL
  SPC = 1
  LOAD = 1
BEGIN BULK
$ ***************************************************************************
$   Written by : Femap
$   Version    : 2412.0
$   Translator : Simcenter Nastran
$   From Model : C:\Documents\Grad_School\!AE_Masters_Project\AE_Masters_Project\Nastran\!FinalModels\CompoundTensionStrip\PyDFEM\CompoundTensionStripPyDFEM_8.modfem
$   Date       : Thu Nov 20 19:19:03 2025
$   Output To  : C:\Documents\Grad_School\!AE_Masters_Project\AE_Masters_Project\Nastran\!FinalModels\CompoundTensionStrip\PyDFEM\
$ ***************************************************************************
$
PARAM,PRGPST,NO
PARAM,POST,0
PARAM,OGEOM,NO
PARAM,AUTOSPC,YES
PARAM,K6ROT,100.
PARAM,GRDPNT,0
CORD2C         1       0      0.      0.      0.      0.      0.      1.+FEMAPC1
+FEMAPC1      1.      0.      1.        
CORD2S         2       0      0.      0.      0.      0.      0.      1.+FEMAPC2
+FEMAPC2      1.      0.      1.        
$ Femap Coordinate System 3 : Rectangular Coordinate System
CORD2R         3       0  7.1375    .525      0.  7.1375    .525     -1.+       
+       8.113687.3080695      0.        
$ Femap Load Set 1 : Untitled
FORCE          1    4474       0      1.    125.      0.      0.
FORCE          1    4475       0      1.    250.      0.      0.
FORCE          1    4476       0      1.    250.      0.      0.
FORCE          1    4477       0      1.    250.      0.      0.
FORCE          1    4478       0      1.    125.      0.      0.
$ Femap Constraint Set 1 : Untitled
SPC1           1  123456     287
SPC1           1       2     288
SPC1           1       2     289
SPC1           1       2     290
SPC1           1       2     291
SPC1           1       2     292
SPC1           1       2     293
SPC1           1       2     294
SPC1           1       2     295
SPC1           1       2     296
SPC1           1       2     297
SPC1           1       2     298
SPC1           1       2     299
SPC1           1       2     300
SPC1           1       2     301
SPC1           1       2     302
SPC1           1       2     303
SPC1           1       2     304
SPC1           1       2     305
SPC1           1       2     306
$ ... 76 like lines cut
$ Femap Property 1 : PLATE Property
PSHELL         1       1     .25       1               1              0.
$ Femap Material 1 : 2024-T351 Al Plate: t = 0.25 to 0.5 inches
MAT1           1  1.07+7             .332.5906-4 1.255-5     70.        +       
+         42000.  40000.  38000.
MAT4           1.0016435  83.0762.5906-4                        
GRID         287       0      0.      0.      0.       0
GRID         288       0.1515152      0.      0.       0
GRID         289       0.3030303      0.      0.       0
GRID         290       0.4545455      0.      0.       0
GRID         291       0.6060606      0.      0.       0
GRID         292       0.7575758      0.      0.       0
GRID         293       0.9090909      0.      0.       0
GRID         294       01.060606      0.      0.       0
GRID         295       01.212121      0.      0.       0
GRID         296       01.363636      0.      0.       0
GRID         297       01.515152      0.      0.       0
GRID         298       01.666667      0.      0.       0
GRID         299       01.818182      0.      0.       0
GRID         300       01.969697      0.      0.       0
GRID         301       02.121212      0.      0.       0
GRID         302       02.272727      0.      0.       0
GRID         303       02.424242      0.      0.       0
GRID         304       02.575758      0.      0.       0
GRID         305       02.727273      0.      0.       0
GRID         306       02.878788      0.      0.       0
$ ... 758 like lines cut
CQUAD4       145       1     287     288     367     366                
CQUAD4       146       1     288     289     368     367                
CQUAD4       147       1     289     290     369     368                
CQUAD4       148       1     290     291     370     369                
CQUAD4       149       1     291     292     371     370                
CQUAD4       150       1     292     293     372     371                
CQUAD4       151       1     293     294     373     372                
CQUAD4       152       1     294     295     374     373                
CQUAD4       153       1     295     296     375     374                
CQUAD4       154       1     296     297     376     375                
CQUAD4       155       1     297     298     377     376                
CQUAD4       156       1     298     299     378     377                
CQUAD4       157       1     299     300     379     378                
CQUAD4       158       1     300     301     380     379                
CQUAD4       159       1     301     302     381     380                
CQUAD4       160       1     302     303     382     381                
CQUAD4       161       1     303     304     383     382                
CQUAD4       162       1     304     305     384     383                
CQUAD4       163       1     305     306     385     384                
CQUAD4       164       1     306     307     386     385                
$ ... 293 like lines cut
CQUAD8      3069       1    3972    4180    4179    1759    4195    4196+       
+           4197    4072                                                
CQUAD8      3070       1    1762    4181    4180    3972    4199    4200+       
+           4195    4067                                                
CQUAD8      3071       1    3973    4182    4181    1762    4202    4203+       
+           4199    4045                                                
CQUAD8      3072       1    1765    4183    4182    3973    4205    4206+       
+           4202    4040                                                
CQUAD8      3073       1    1765    3974    4184    4183    4030    4208+       
+           4209    4205                                                
CQUAD8      3074       1    3974    1768    4185    4184    4024    4211+       
+           4212    4208                                                
CQUAD8      3075       1    1768    3975    4186    4185    4018    4214+       
+           4215    4211                                                
CQUAD8      3076       1    3975    1513    4167    4186    4073    4217+       
+           4218    4214                                                
CQUAD8      3077       1    4180    4187    4178    4179    4219    4220+       
+           4221    4196                                                
CQUAD8      3078       1    4181    4188    4187    4180    4222    4223+       
+           4219    4200                                                
CQUAD8      3079       1    4182    4189    4188    4181    4224    4225+       
+           4222    4203                                                
CQUAD8      3080       1    4183    4190    4189    4182    4226    4227+       
+           4224    4206                                                
CQUAD8      3081       1    4183    4184    4191    4190    4209    4228+       
+           4229    4226                                                
CQUAD8      3082       1    4184    4185    4192    4191    4212    4230+       
+           4231    4228                                                
CQUAD8      3083       1    4185    4186    4193    4192    4215    4232+       
+           4233    4230                                                
CQUAD8      3084       1    4186    4167    4168    4193    4218    4234+       
+           4235    4232                                                
CQUAD8      3085       1    4187    4176    4177    4178    4236    4237+       
+           4238    4220                                                
CQUAD8      3086       1    4188    4175    4176    4187    4239    4240+       
+           4236    4223                                                
CQUAD8      3087       1    4189    4174    4175    4188    4241    4242+       
+           4239    4225                                                
CQUAD8      3088       1    4190    4173    4174    4189    4243    4244+       
+           4241    4227                                                
$ ... 8 like lines cut
CQUAD4      3093       1    4253    2039    2770    4264                
CQUAD4      3094       1    4254    4253    4264    4265                
CQUAD4      3095       1    4255    4254    4265    4266                
CQUAD4      3096       1    4256    4255    4266    4267                
CQUAD4      3097       1    1513    4256    4267    4167                
CQUAD4      3098       1    4264    2770    2771    4268                
CQUAD4      3099       1    4265    4264    4268    4269                
CQUAD4      3100       1    4266    4265    4269    4270                
CQUAD4      3101       1    4267    4266    4270    4271                
CQUAD4      3102       1    4167    4267    4271    4168                
CQUAD4      3103       1    4268    2771    2048    4263                
CQUAD4      3104       1    4269    4268    4263    4262                
CQUAD4      3105       1    4270    4269    4262    4261                
CQUAD4      3106       1    4271    4270    4261    4260                
CQUAD4      3107       1    4168    4271    4260    4169                
CQUAD4      3279       1    4456    4497    4457    2930                
CQUAD4      3280       1    4497    4498    4458    4457                
CQUAD4      3281       1    4498    4499    4459    4458                
CQUAD4      3282       1    4499    4500    4460    4459                
CQUAD4      3283       1    4500    4501    4461    4460                
$ ... 70 like lines cut
CTRIA3      3354       1    4562    4564    4563                        
CQUAD4      3355       1    4548    2074    4456    4564                
CQUAD4      3356       1    4550    4549    4562    4560                
CQUAD4      3357       1    4560    4562    4563    4561                
CQUAD4      3358       1    4561    4563    4556    4555                
CQUAD4      3359       1    4551    4550    4560    4558                
CQUAD4      3360       1    4558    4560    4561    4559                
CQUAD4      3361       1    4559    4561    4555    4554                
CQUAD4      3362       1    4566    4558    4559    4565                
CQUAD4      3363       1    2770    4566    4565    2771                
CQUAD4      3364       1    2039    4552    4566    2770                
CQUAD4      3365       1    4552    4551    4558    4566                
CQUAD4      3366       1    4565    4559    4554    4553                
CQUAD4      3367       1    2771    4565    4553    2048                
CQUAD4      3368       1    2061    4571    4572    4131                
CQUAD4      3369       1    4131    4572    4552    2039                
CQUAD4      3370       1    4571    4570    4573    4572                
CQUAD4      3371       1    4572    4573    4551    4552                
CQUAD4      3372       1    4570    4569    4574    4573                
CQUAD4      3373       1    4573    4574    4550    4551                
CQUAD4      3374       1    4569    4568    4575    4574                
$ ... 36 like lines cut
CTRIA3      3924       1    5120    5121     765                        
CQUAD4      3925       1    5119    5146    5147    5120                
CQUAD4      3926       1    5118    5145    5146    5119                
CQUAD4      3927       1    4919    5144    5145    5118                
CQUAD4      3928       1    5115    5141    5142    5116                
CQUAD4      3929       1    5116    5142    5143    5117                
CQUAD4      3930       1    5117    5143    5144    4919                
CQUAD4      3931       1    5129    5128    5136    5137                
CQUAD4      3932       1    5130    5129    5137    5138                
CQUAD4      3933       1    5131    5130    5138    5139                
CQUAD4      3934       1    5128    5127    5135    5136                
CQUAD4      3935       1    5132    5131    5139    5140                
CQUAD4      3936       1    5127    5126    5134    5135                
CQUAD4      3937       1    5133    5132    5140    5141                
CQUAD4      3938       1    5126    5125    5124    5134                
CQUAD4      3939       1     758    5133    5141    5115                
CQUAD4      3940       1    5168    2061    4131    5170                
CQUAD4      3941       1    5169    5168    5174    5175                
CQUAD4      3942       1    5174    5168    5170    5171                
CQUAD4      3943       1    5175    5174    5171    5172                
CQUAD4      3944       1    5125    5169    5175    5176                
$ ... 14 like lines cut
CTRIA3      3959       1    5271    5259    5270                        
CQUAD4      3960       1    5270    5259    5256    5255                
CQUAD4      3961       1    5243    5242    5268    5266                
CQUAD4      3962       1    5266    5268    5269    5267                
CQUAD4      3963       1    5267    5269    5253    5252                
CQUAD4      3964       1    5244    5243    5266    5264                
CQUAD4      3965       1    5264    5266    5267    5265                
CQUAD4      3966       1    5265    5267    5252    5251                
CQUAD4      3967       1    5245    5244    5264    5262                
CQUAD4      3968       1    5262    5264    5265    5263                
CQUAD4      3969       1    5263    5265    5251    5250                
CQUAD4      3970       1    5246    5245    5262    5260                
CQUAD4      3971       1    5260    5262    5263    5261                
CQUAD4      3972       1    5261    5263    5250    5249                
CQUAD4      3973       1    3768    5246    5260    3767                
CQUAD4      3974       1    3767    5260    5261    3766                
CQUAD4      3975       1    3766    5261    5249    3765                
CQUAD4      3976       1    5239    5238    5258    5259                
CQUAD4      3977       1    5259    5258    5257    5256                
CQUAD4      3978       1    5238    5237    5248    5258                
CQUAD4      3979       1    5258    5248    5247    5257                
$ ... 82 like lines cut
ENDDATA d08ff533
