INIT MASTER(S)
NASTRAN SYSTEM(442)=-1,SYSTEM(319)=1
ID FFinalM,FEMAP
SOL SESTATIC
CEND
  TITLE = Simcenter Nastran Static Analysis Set
  ECHO = NONE
  DISPLACEMENT(PLOT) = ALL
  SPCFORCE(PLOT) = ALL
  OLOAD(PLOT) = ALL
  FORCE(PLOT,CORNER) = ALL
  STRESS(PLOT,CORNER) = ALL
  SPC = 1
  LOAD = 1
BEGIN BULK
$ ***************************************************************************
$   Written by : Femap
$   Version    : 2412.0
$   Translator : Simcenter Nastran
$   From Model : C:\Documents\Grad_School\!AE_Masters_Project\AE_Masters_Project\Nastran\!FinalModels\CompoundTensionStrip\PyDFEM\CompoundTensionStripPyDFEM_12.modfem
$   Date       : Thu Nov 20 20:11:12 2025
$   Output To  : C:\Documents\Grad_School\!AE_Masters_Project\AE_Masters_Project\Nastran\!FinalModels\CompoundTensionStrip\PyDFEM\
$ ***************************************************************************
$
PARAM,PRGPST,NO
PARAM,POST,0
PARAM,OGEOM,NO
PARAM,AUTOSPC,YES
PARAM,K6ROT,100.
PARAM,GRDPNT,0
CORD2C         1       0      0.      0.      0.      0.      0.      1.+FEMAPC1
+FEMAPC1      1.      0.      1.        
CORD2S         2       0      0.      0.      0.      0.      0.      1.+FEMAPC2
+FEMAPC2      1.      0.      1.        
$ Femap Coordinate System 3 : Rectangular Coordinate System
CORD2R         3       0  7.1375    .525      0.  7.1375    .525     -1.+       
+       8.113687.3080695      0.        
$ Femap Load Set 1 : Untitled
FORCE          1    2948       0      1.    125.      0.      0.
FORCE          1    2949       0      1.    250.      0.      0.
FORCE          1    2950       0      1.    250.      0.      0.
FORCE          1    2951       0      1.    250.      0.      0.
FORCE          1    2952       0      1.    125.      0.      0.
$ Femap Constraint Set 1 : Untitled
SPC1           1  123456     287
SPC1           1       2     288
SPC1           1       2     289
SPC1           1       2     290
SPC1           1       2     291
SPC1           1       2     292
SPC1           1       2     293
SPC1           1       2     294
SPC1           1       2     295
SPC1           1       2     296
SPC1           1       2     297
SPC1           1       2     298
SPC1           1       2     299
SPC1           1       2     300
SPC1           1       2     301
SPC1           1       2     302
SPC1           1       2     303
SPC1           1       2     304
SPC1           1       2     305
SPC1           1       2     306
$ ... 75 like lines cut
$ Femap Property 1 : PLATE Property
PSHELL         1       1     .25       1               1              0.
$ Femap Material 1 : 2024-T351 Al Plate: t = 0.25 to 0.5 inches
MAT1           1  1.07+7             .332.5906-4 1.255-5     70.        +       
+         42000.  40000.  38000.
MAT4           1.0016435  83.0762.5906-4                        
GRID         287       0      0.      0.      0.       0
GRID         288       0.1515152      0.      0.       0
GRID         289       0.3030303      0.      0.       0
GRID         290       0.4545455      0.      0.       0
GRID         291       0.6060606      0.      0.       0
GRID         292       0.7575758      0.      0.       0
GRID         293       0.9090909      0.      0.       0
GRID         294       01.060606      0.      0.       0
GRID         295       01.212121      0.      0.       0
GRID         296       01.363636      0.      0.       0
GRID         297       01.515152      0.      0.       0
GRID         298       01.666667      0.      0.       0
GRID         299       01.818182      0.      0.       0
GRID         300       01.969697      0.      0.       0
GRID         301       02.121212      0.      0.       0
GRID         302       02.272727      0.      0.       0
GRID         303       02.424242      0.      0.       0
GRID         304       02.575758      0.      0.       0
GRID         305       02.727273      0.      0.       0
GRID         306       02.878788      0.      0.       0
$ ... 809 like lines cut
CQUAD4       145       1     287     288     367     366                
CQUAD4       146       1     288     289     368     367                
CQUAD4       147       1     289     290     369     368                
CQUAD4       148       1     290     291     370     369                
CQUAD4       149       1     291     292     371     370                
CQUAD4       150       1     292     293     372     371                
CQUAD4       151       1     293     294     373     372                
CQUAD4       152       1     294     295     374     373                
CQUAD4       153       1     295     296     375     374                
CQUAD4       154       1     296     297     376     375                
CQUAD4       155       1     297     298     377     376                
CQUAD4       156       1     298     299     378     377                
CQUAD4       157       1     299     300     379     378                
CQUAD4       158       1     300     301     380     379                
CQUAD4       159       1     301     302     381     380                
CQUAD4       160       1     302     303     382     381                
CQUAD4       161       1     303     304     383     382                
CQUAD4       162       1     304     305     384     383                
CQUAD4       163       1     305     306     385     384                
CQUAD4       164       1     306     307     386     385                
$ ... 399 like lines cut
CTRIA3      2525       1    3368    3374    3375                        
CQUAD4      2526       1    3359    3358    3366    3367                
CQUAD4      2527       1    3361    3360    3368    3369                
CQUAD4      2528       1    3358     758     993    3402                
CQUAD4      2529       1    3402     993     994    3403                
CQUAD4      2530       1    3403     994     995    3364                
CQUAD4      2531       1    3402    3403    3364    3365                
CQUAD4      2532       1    3358    3402    3365    3366                
CQUAD4      2533       1     571    3361    3369     570                
CQUAD4      2534       1    3367    3366    3400    3404                
CQUAD4      2535       1    3367    3404    3406    3373                
CQUAD4      2536       1    3404    3400    3401    3406                
CQUAD4      2537       1    3406    3401    3372    3405                
CQUAD4      2538       1    3373    3406    3405    3389                
CQUAD4      2539       1    3405    3372    3379    3389                
CQUAD8      2693       1    1760    3571    3570    1759    3594    3595+       
+           3596    3593                                                
CQUAD8      2694       1    1761    3572    3571    1760    3598    3599+       
+           3594    3597                                                
CQUAD8      2695       1    1762    3573    3572    1761    3601    3602+       
+           3598    3600                                                
CQUAD8      2696       1    1763    3574    3573    1762    3604    3605+       
+           3601    3603                                                
CQUAD8      2697       1    1764    3575    3574    1763    3607    3608+       
+           3604    3606                                                
CQUAD8      2698       1    1765    3576    3575    1764    3610    3611+       
+           3607    3609                                                
CQUAD8      2699       1    1765    1766    3577    3576    3612    3613+       
+           3614    3610                                                
CQUAD8      2700       1    1766    1767    3578    3577    3615    3616+       
+           3617    3613                                                
CQUAD8      2701       1    1767    1768    3579    3578    3618    3619+       
+           3620    3616                                                
CQUAD8      2702       1    1768    1769    3580    3579    3621    3622+       
+           3623    3619                                                
CQUAD8      2703       1    1769    1770    3581    3580    3624    3625+       
+           3626    3622                                                
CQUAD8      2704       1    1770    1513    3554    3581    3627    3628+       
+           3629    3625                                                
CQUAD8      2705       1    3571    3582    3569    3570    3630    3631+       
+           3632    3595                                                
CQUAD8      2706       1    3572    3583    3582    3571    3633    3634+       
+           3630    3599                                                
CQUAD8      2707       1    3573    3584    3583    3572    3635    3636+       
+           3633    3602                                                
CQUAD8      2708       1    3574    3585    3584    3573    3637    3638+       
+           3635    3605                                                
CQUAD8      2709       1    3575    3586    3585    3574    3639    3640+       
+           3637    3608                                                
CQUAD8      2710       1    3576    3587    3586    3575    3641    3642+       
+           3639    3611                                                
CQUAD8      2711       1    3576    3577    3588    3587    3614    3643+       
+           3644    3641                                                
CQUAD8      2712       1    3577    3578    3589    3588    3617    3645+       
+           3646    3643                                                
$ ... 32 like lines cut
CQUAD4      2758       1    2765    2074    2928    3714                
CQUAD4      2759       1    2766    2765    3714    3715                
CQUAD4      2760       1    2767    2766    3715    3716                
CQUAD4      2761       1    2768    2767    3716    3717                
CQUAD4      2762       1    2769    2768    3717    3718                
CQUAD4      2763       1    2039    2769    3718    2770                
CQUAD4      2764       1    3714    2928    2929    3719                
CQUAD4      2765       1    3715    3714    3719    3720                
CQUAD4      2766       1    3716    3715    3720    3721                
CQUAD4      2767       1    3717    3716    3721    3722                
CQUAD4      2768       1    3718    3717    3722    3723                
CQUAD4      2769       1    2770    3718    3723    2771                
CQUAD4      2770       1    3719    2929    2930    3713                
CQUAD4      2771       1    3720    3719    3713    3712                
CQUAD4      2772       1    3721    3720    3712    3711                
CQUAD4      2773       1    3722    3721    3711    3710                
CQUAD4      2774       1    3723    3722    3710    3709                
CQUAD4      2775       1    2771    3723    3709    2048                
CQUAD4      2776       1    3777    3787    3790    3778                
CQUAD4      2777       1    3787    3786    3789    3790                
$ ... 155 like lines cut
ENDDATA c244bce1
