INIT MASTER(S)
NASTRAN SYSTEM(442)=-1,SYSTEM(319)=1
ID FFinalM,FEMAP
SOL SESTATIC
CEND
  TITLE = Simcenter Nastran Static Analysis Set
  ECHO = NONE
  DISPLACEMENT(PLOT) = ALL
  SPCFORCE(PLOT) = ALL
  OLOAD(PLOT) = ALL
  FORCE(PLOT,CORNER) = ALL
  STRESS(PLOT,CORNER) = ALL
  SPC = 1
  LOAD = 1
BEGIN BULK
$ ***************************************************************************
$   Written by : Femap
$   Version    : 2412.0
$   Translator : Simcenter Nastran
$   From Model : C:\Documents\Grad_School\!AE_Masters_Project\AE_Masters_Project\Nastran\!FinalModels\CompoundTensionStrip\PyDFEM\CompoundTensionStripPyDFEM_14.modfem
$   Date       : Thu Nov 20 21:18:38 2025
$   Output To  : C:\Documents\Grad_School\!AE_Masters_Project\AE_Masters_Project\Nastran\!FinalModels\CompoundTensionStrip\PyDFEM\
$ ***************************************************************************
$
PARAM,PRGPST,NO
PARAM,POST,0
PARAM,OGEOM,NO
PARAM,AUTOSPC,YES
PARAM,K6ROT,100.
PARAM,GRDPNT,0
CORD2C         1       0      0.      0.      0.      0.      0.      1.+FEMAPC1
+FEMAPC1      1.      0.      1.        
CORD2S         2       0      0.      0.      0.      0.      0.      1.+FEMAPC2
+FEMAPC2      1.      0.      1.        
$ Femap Coordinate System 3 : Rectangular Coordinate System
CORD2R         3       0  7.1375    .525      0.  7.1375    .525     -1.+       
+       8.113687.3080695      0.        
$ Femap Load Set 1 : Untitled
FORCE          1    2948       0      1.    125.      0.      0.
FORCE          1    2949       0      1.    250.      0.      0.
FORCE          1    2950       0      1.    250.      0.      0.
FORCE          1    2951       0      1.    250.      0.      0.
FORCE          1    2952       0      1.    125.      0.      0.
$ Femap Constraint Set 1 : Untitled
SPC1           1  123456     287
SPC1           1       2     288
SPC1           1       2     289
SPC1           1       2     290
SPC1           1       2     291
SPC1           1       2     292
SPC1           1       2     293
SPC1           1       2     294
SPC1           1       2     295
SPC1           1       2     296
SPC1           1       2     297
SPC1           1       2     298
SPC1           1       2     299
SPC1           1       2     300
SPC1           1       2     301
SPC1           1       2     302
SPC1           1       2     303
SPC1           1       2     304
SPC1           1       2     305
SPC1           1       2     306
$ ... 93 like lines cut
$ Femap Property 1 : PLATE Property
PSHELL         1       1     .25       1               1              0.
$ Femap Material 1 : 2024-T351 Al Plate: t = 0.25 to 0.5 inches
MAT1           1  1.07+7             .332.5906-4 1.255-5     70.        +       
+         42000.  40000.  38000.
MAT4           1.0016435  83.0762.5906-4                        
GRID         287       0      0.      0.      0.       0
GRID         288       0.1515152      0.      0.       0
GRID         289       0.3030303      0.      0.       0
GRID         290       0.4545455      0.      0.       0
GRID         291       0.6060606      0.      0.       0
GRID         292       0.7575758      0.      0.       0
GRID         293       0.9090909      0.      0.       0
GRID         294       01.060606      0.      0.       0
GRID         295       01.212121      0.      0.       0
GRID         296       01.363636      0.      0.       0
GRID         297       01.515152      0.      0.       0
GRID         298       01.666667      0.      0.       0
GRID         299       01.818182      0.      0.       0
GRID         300       01.969697      0.      0.       0
GRID         301       02.121212      0.      0.       0
GRID         302       02.272727      0.      0.       0
GRID         303       02.424242      0.      0.       0
GRID         304       02.575758      0.      0.       0
GRID         305       02.727273      0.      0.       0
GRID         306       02.878788      0.      0.       0
$ ... 1079 like lines cut
CQUAD4       145       1     287     288     367     366                
CQUAD4       146       1     288     289     368     367                
CQUAD4       147       1     289     290     369     368                
CQUAD4       148       1     290     291     370     369                
CQUAD4       149       1     291     292     371     370                
CQUAD4       150       1     292     293     372     371                
CQUAD4       151       1     293     294     373     372                
CQUAD4       152       1     294     295     374     373                
CQUAD4       153       1     295     296     375     374                
CQUAD4       154       1     296     297     376     375                
CQUAD4       155       1     297     298     377     376                
CQUAD4       156       1     298     299     378     377                
CQUAD4       157       1     299     300     379     378                
CQUAD4       158       1     300     301     380     379                
CQUAD4       159       1     301     302     381     380                
CQUAD4       160       1     302     303     382     381                
CQUAD4       161       1     303     304     383     382                
CQUAD4       162       1     304     305     384     383                
CQUAD4       163       1     305     306     385     384                
CQUAD4       164       1     306     307     386     385                
$ ... 409 like lines cut
CQUAD8      3047       1    4188    4202    4201    1759    4229    4230+       
+           4231    4228                                                
CQUAD8      3048       1    4189    4203    4202    4188    4233    4234+       
+           4229    4232                                                
CQUAD8      3049       1    4190    4204    4203    4189    4236    4237+       
+           4233    4235                                                
CQUAD8      3050       1    4191    4205    4204    4190    4239    4240+       
+           4236    4238                                                
CQUAD8      3051       1    4192    4206    4205    4191    4242    4243+       
+           4239    4241                                                
CQUAD8      3052       1    4193    4207    4206    4192    4245    4246+       
+           4242    4244                                                
CQUAD8      3053       1    1765    4208    4207    4193    4248    4249+       
+           4245    4247                                                
CQUAD8      3054       1    1765    4194    4209    4208    4250    4251+       
+           4252    4248                                                
CQUAD8      3055       1    4194    4195    4210    4209    4253    4254+       
+           4255    4251                                                
CQUAD8      3056       1    4195    4196    4211    4210    4256    4257+       
+           4258    4254                                                
CQUAD8      3057       1    4196    4197    4212    4211    4259    4260+       
+           4261    4257                                                
CQUAD8      3058       1    4197    4198    4213    4212    4262    4263+       
+           4264    4260                                                
CQUAD8      3059       1    4198    4199    4214    4213    4265    4266+       
+           4267    4263                                                
CQUAD8      3060       1    4199    1513    3554    4214    4268    4269+       
+           4270    4266                                                
CQUAD8      3061       1    4202    4215    4200    4201    4271    4272+       
+           3632    4230                                                
CQUAD8      3062       1    4203    4216    4215    4202    4273    4274+       
+           4271    4234                                                
CQUAD8      3063       1    4204    4217    4216    4203    4275    4276+       
+           4273    4237                                                
CQUAD8      3064       1    4205    4218    4217    4204    4277    4278+       
+           4275    4240                                                
CQUAD8      3065       1    4206    4219    4218    4205    4279    4280+       
+           4277    4243                                                
CQUAD8      3066       1    4207    4220    4219    4206    4281    4282+       
+           4279    4246                                                
$ ... 266 like lines cut
CQUAD4      3970       1    6189    6544    6545    6188                
CQUAD4      3971       1    6188    6545    6546    6187                
CQUAD4      3972       1    6187    6546    3683    1513                
CQUAD4      3973       1    6544    6543    6547    6545                
CQUAD4      3974       1    6545    6547    6548    6546                
CQUAD4      3975       1    6546    6548    3682    3683                
CQUAD4      3976       1    6543    6542    6549    6547                
CQUAD4      3977       1    6547    6549    6550    6548                
CQUAD4      3978       1    6548    6550    3681    3682                
CQUAD4      3979       1    6542    6541    6551    6549                
CQUAD4      3980       1    6549    6551    6552    6550                
CQUAD4      3981       1    6550    6552    3680    3681                
CQUAD4      3982       1    6541    2061    2060    6551                
CQUAD4      3983       1    6551    2060    2059    6552                
CQUAD4      3984       1    6552    2059    2039    3680                
CQUAD4      3985       1    6578    6162    6163    6575                
CQUAD4      3986       1    6577    6161    6162    6578                
CQUAD4      3987       1    6576    6160    6161    6577                
CQUAD4      3988       1    6580    6159    6160    6576                
CQUAD4      3989       1    6579    6158    6159    6580                
CQUAD4      3990       1    6581    6157    6158    6579                
CQUAD4      3991       1    6555     758    6157    6581                
CQUAD4      3992       1    6582    6165    6166    6583                
CTRIA3      3993       1    6585    6604    6582                        
CQUAD4      3994       1    6575    6163    6164    6604                
CQUAD4      3995       1    6583    6166    6167    6567                
CQUAD4      3996       1    6585    6582    6583    6584                
CQUAD4      3997       1    6573    6585    6584    6574                
CQUAD4      3998       1    6584    6583    6567    6566                
CQUAD4      3999       1    6574    6584    6566    6565                
CQUAD4      4000       1    6589    6587    6564    6563                
CQUAD4      4001       1    6571    6589    6563    6562                
CQUAD4      4002       1    6571    6588    6587    6589                
CQUAD4      4003       1    6570    6586    6588    6571                
CQUAD4      4004       1    6587    6574    6565    6564                
CQUAD4      4005       1    6588    6573    6574    6587                
CQUAD4      4006       1    6586    6572    6573    6588                
CQUAD4      4007       1    6557    6556    6586    6570                
CQUAD4      4008       1    6556    6555    6572    6586                
CQUAD4      4009       1    6569    6571    6562    6561                
CQUAD4      4010       1    6568    6570    6571    6569                
CQUAD4      4011       1    6558    6557    6570    6568                
CQUAD4      4012       1     569    6569    6561     568                
CQUAD4      4013       1     570    6568    6569     569                
$ ... 6 like lines cut
CTRIA3      4020       1    6599     765    6554                        
CQUAD4      4021       1    6598    6169     765    6599                
CQUAD4      4022       1    6596    6597    6600    6613                
CQUAD4      4023       1    6592    6596    6613    6553                
CQUAD4      4024       1    6566    6567    6593    6594                
CQUAD4      4025       1    6565    6566    6594    6595                
CQUAD4      4026       1    6564    6565    6595    6591                
CQUAD4      4027       1    6567    6167    6168    6593                
CQUAD4      4028       1    6602    6591    6592    6603                
CQUAD4      4029       1    6603    6592    6553    6560                
CQUAD4      4030       1    6601    6602    6603    6560                
CQUAD4      4031       1    6562    6563    6602    6601                
CQUAD4      4032       1    6563    6564    6591    6602                
CQUAD4      4033       1    6590    6601    6560    6559                
CQUAD4      4034       1    6561    6562    6601    6590                
CQUAD4      4035       1     567    6590    6559     566                
CQUAD4      4036       1     568    6561    6590     567                
CQUAD4      4037       1    6604    6164    6165    6582                
CQUAD4      4038       1    6605    6577    6578    6607                
CQUAD4      4039       1    6607    6578    6575    6606                
CQUAD4      4040       1    6573    6607    6606    6585                
$ ... 10 like lines cut
CTRIA3      4051       1    6613    6600    6554                        
CTRIA3      4052       1    6600    6599    6554                        
CTRIA3      4053       1    6613    6554    6553                        
ENDDATA 176bedcf
