INIT MASTER(S)
NASTRAN SYSTEM(442)=-1,SYSTEM(319)=1
ID FFinalM,FEMAP
SOL SESTATIC
CEND
  TITLE = Simcenter Nastran Static Analysis Set
  ECHO = NONE
  DISPLACEMENT(PLOT) = ALL
  SPCFORCE(PLOT) = ALL
  OLOAD(PLOT) = ALL
  FORCE(PLOT,CORNER) = ALL
  STRESS(PLOT,CORNER) = ALL
  SPC = 1
  LOAD = 1
BEGIN BULK
$ ***************************************************************************
$   Written by : Femap
$   Version    : 2412.0
$   Translator : Simcenter Nastran
$   From Model : C:\Documents\Grad_School\!AE_Masters_Project\AE_Masters_Project\Nastran\!FinalModels\CompoundTensionStrip\PyDFEM\CompoundTensionStripPyDFEM_10.modfem
$   Date       : Thu Nov 20 18:26:14 2025
$   Output To  : C:\Documents\Grad_School\!AE_Masters_Project\AE_Masters_Project\Nastran\!FinalModels\CompoundTensionStrip\PyDFEM\
$ ***************************************************************************
$
PARAM,PRGPST,NO
PARAM,POST,0
PARAM,OGEOM,NO
PARAM,AUTOSPC,YES
PARAM,K6ROT,100.
PARAM,GRDPNT,0
CORD2C         1       0      0.      0.      0.      0.      0.      1.+FEMAPC1
+FEMAPC1      1.      0.      1.        
CORD2S         2       0      0.      0.      0.      0.      0.      1.+FEMAPC2
+FEMAPC2      1.      0.      1.        
$ Femap Coordinate System 3 : Rectangular Coordinate System
CORD2R         3       0  7.1375    .525      0.  7.1375    .525     -1.+       
+       8.113687.3080695      0.        
$ Femap Load Set 1 : Untitled
FORCE          1    4474       0      1.    125.      0.      0.
FORCE          1    4475       0      1.    250.      0.      0.
FORCE          1    4476       0      1.    250.      0.      0.
FORCE          1    4477       0      1.    250.      0.      0.
FORCE          1    4478       0      1.    125.      0.      0.
$ Femap Constraint Set 1 : Untitled
SPC1           1  123456     287
SPC1           1       2     288
SPC1           1       2     289
SPC1           1       2     290
SPC1           1       2     291
SPC1           1       2     292
SPC1           1       2     293
SPC1           1       2     294
SPC1           1       2     295
SPC1           1       2     296
SPC1           1       2     297
SPC1           1       2     298
SPC1           1       2     299
SPC1           1       2     300
SPC1           1       2     301
SPC1           1       2     302
SPC1           1       2     303
SPC1           1       2     304
SPC1           1       2     305
SPC1           1       2     306
$ ... 77 like lines cut
$ Femap Property 1 : PLATE Property
PSHELL         1       1     .25       1               1              0.
$ Femap Material 1 : 2024-T351 Al Plate: t = 0.25 to 0.5 inches
MAT1           1  1.07+7             .332.5906-4 1.255-5     70.        +       
+         42000.  40000.  38000.
MAT4           1.0016435  83.0762.5906-4                        
GRID         287       0      0.      0.      0.       0
GRID         288       0.1515152      0.      0.       0
GRID         289       0.3030303      0.      0.       0
GRID         290       0.4545455      0.      0.       0
GRID         291       0.6060606      0.      0.       0
GRID         292       0.7575758      0.      0.       0
GRID         293       0.9090909      0.      0.       0
GRID         294       01.060606      0.      0.       0
GRID         295       01.212121      0.      0.       0
GRID         296       01.363636      0.      0.       0
GRID         297       01.515152      0.      0.       0
GRID         298       01.666667      0.      0.       0
GRID         299       01.818182      0.      0.       0
GRID         300       01.969697      0.      0.       0
GRID         301       02.121212      0.      0.       0
GRID         302       02.272727      0.      0.       0
GRID         303       02.424242      0.      0.       0
GRID         304       02.575758      0.      0.       0
GRID         305       02.727273      0.      0.       0
GRID         306       02.878788      0.      0.       0
$ ... 799 like lines cut
CQUAD4       145       1     287     288     367     366                
CQUAD4       146       1     288     289     368     367                
CQUAD4       147       1     289     290     369     368                
CQUAD4       148       1     290     291     370     369                
CQUAD4       149       1     291     292     371     370                
CQUAD4       150       1     292     293     372     371                
CQUAD4       151       1     293     294     373     372                
CQUAD4       152       1     294     295     374     373                
CQUAD4       153       1     295     296     375     374                
CQUAD4       154       1     296     297     376     375                
CQUAD4       155       1     297     298     377     376                
CQUAD4       156       1     298     299     378     377                
CQUAD4       157       1     299     300     379     378                
CQUAD4       158       1     300     301     380     379                
CQUAD4       159       1     301     302     381     380                
CQUAD4       160       1     302     303     382     381                
CQUAD4       161       1     303     304     383     382                
CQUAD4       162       1     304     305     384     383                
CQUAD4       163       1     305     306     385     384                
CQUAD4       164       1     306     307     386     385                
$ ... 383 like lines cut
CTRIA3      3354       1    4562    4564    4563                        
CQUAD4      3355       1    4548    2074    4456    4564                
CQUAD4      3356       1    4550    4549    4562    4560                
CQUAD4      3357       1    4560    4562    4563    4561                
CQUAD4      3358       1    4561    4563    4556    4555                
CQUAD4      3359       1    4551    4550    4560    4558                
CQUAD4      3360       1    4558    4560    4561    4559                
CQUAD4      3361       1    4559    4561    4555    4554                
CQUAD4      3362       1    4566    4558    4559    4565                
CQUAD4      3363       1    2770    4566    4565    2771                
CQUAD4      3364       1    2039    4552    4566    2770                
CQUAD4      3365       1    4552    4551    4558    4566                
CQUAD4      3366       1    4565    4559    4554    4553                
CQUAD4      3367       1    2771    4565    4553    2048                
CQUAD4      3368       1    2061    4571    4572    4131                
CQUAD4      3369       1    4131    4572    4552    2039                
CQUAD4      3370       1    4571    4570    4573    4572                
CQUAD4      3371       1    4572    4573    4551    4552                
CQUAD4      3372       1    4570    4569    4574    4573                
CQUAD4      3373       1    4573    4574    4550    4551                
CQUAD4      3374       1    4569    4568    4575    4574                
$ ... 5 like lines cut
CQUAD8      4062       1    5287    5303    4179    1759    5322    5323+       
+           4197    5321                                                
CQUAD8      4063       1    5288    5304    5303    5287    5325    5326+       
+           5322    5324                                                
CQUAD8      4064       1    5289    5305    5304    5288    5328    5329+       
+           5325    5327                                                
CQUAD8      4065       1    5290    5306    5305    5289    5331    5332+       
+           5328    5330                                                
CQUAD8      4066       1    1765    5307    5306    5290    5334    5335+       
+           5331    5333                                                
CQUAD8      4067       1    1765    5291    5308    5307    5336    5337+       
+           5338    5334                                                
CQUAD8      4068       1    5291    5292    5309    5308    5339    5340+       
+           5341    5337                                                
CQUAD8      4069       1    5292    5293    5310    5309    5342    5343+       
+           5344    5340                                                
CQUAD8      4070       1    5293    5294    5311    5310    5345    5346+       
+           5347    5343                                                
CQUAD8      4071       1    5294    1513    4167    5311    5348    4217+       
+           5349    5346                                                
CQUAD8      4072       1    5303    5312    4178    4179    5350    5351+       
+           4221    5323                                                
CQUAD8      4073       1    5304    5313    5312    5303    5352    5353+       
+           5350    5326                                                
CQUAD8      4074       1    5305    5314    5313    5304    5354    5355+       
+           5352    5329                                                
CQUAD8      4075       1    5306    5315    5314    5305    5356    5357+       
+           5354    5332                                                
CQUAD8      4076       1    5307    5316    5315    5306    5358    5359+       
+           5356    5335                                                
CQUAD8      4077       1    5307    5308    5317    5316    5338    5360+       
+           5361    5358                                                
CQUAD8      4078       1    5308    5309    5318    5317    5341    5362+       
+           5363    5360                                                
CQUAD8      4079       1    5309    5310    5319    5318    5344    5364+       
+           5365    5362                                                
CQUAD8      4080       1    5310    5311    5320    5319    5347    5366+       
+           5367    5364                                                
CQUAD8      4081       1    5311    4167    4168    5320    5349    4234+       
+           5368    5366                                                
$ ... 20 like lines cut
CQUAD4      4092       1    5445    5455    5289    5446                
CQUAD4      4093       1    5444    5454    5455    5445                
CQUAD4      4094       1    5454    5290    5289    5455                
CQUAD4      4095       1    5454    5453    1765    5290                
CQUAD4      4096       1    5443    5452    5454    5444                
CQUAD4      4097       1    5452    5451    5453    5454                
CQUAD4      4098       1    5451    5450    5456    5453                
CQUAD4      4099       1    5450    5449    5291    5456                
CQUAD4      4100       1    5456    5291    1765    5453                
CQUAD4      4101       1    5449    5448    5292    5291                
CQUAD4      4102       1    5458    5459    5450    5451                
CQUAD4      4103       1    5422    5421    5459    5458                
CQUAD4      4104       1    5459    5421    5449    5450                
CQUAD4      4105       1    5457    5458    5451    5452                
CQUAD4      4106       1    5423    5422    5458    5457                
CQUAD4      4107       1    5421    5420    5448    5449                
CQUAD4      4108       1    5442    5457    5452    5443                
CQUAD4      4109       1    5424    5423    5457    5442                
CQUAD4      4110       1    5448    5419    5293    5292                
CTRIA3      4111       1    5420    5419    5448                        
CQUAD4      4112       1    5446    5289    5288    5447                
CQUAD4      4113       1    5419    5418    5294    5293                
CQUAD4      4114       1    5447    5288    5287    5429                
CQUAD4      4115       1    5438    5444    5445    5439                
CQUAD4      4116       1    5437    5443    5444    5438                
CQUAD4      4117       1    5436    5442    5443    5437                
CQUAD4      4118       1    5439    5445    5446    5440                
CQUAD4      4119       1    5425    5424    5442    5436                
CQUAD4      4120       1    5440    5446    5447    5441                
CQUAD4      4121       1    5441    5447    5429    5428                
CQUAD4      4122       1    5432    5438    5439    5433                
CQUAD4      4123       1    5431    5437    5438    5432                
CQUAD4      4124       1    5430    5436    5437    5431                
CQUAD4      4125       1    5433    5439    5440    5434                
CQUAD4      4126       1    5426    5425    5436    5430                
CQUAD4      4127       1    5434    5440    5441    5435                
CQUAD4      4128       1    5435    5441    5428    5427                
CQUAD4      4129       1    5391    5432    5433    4919                
CQUAD4      4130       1    5390    5431    5432    5391                
CQUAD4      4131       1    5389    5430    5431    5390                
$ ... 5 like lines cut
CTRIA3      4137       1    5395    5396     765                        
CQUAD4      4138       1    5427    5428    5397    5396                
CQUAD4      4139       1    5429    5287    1759    5398                
CQUAD4      4140       1    5428    5429    5398    5397                
CQUAD4      4141       1    5418    5407    1513    5294                
CQUAD4      4142       1    5413    5412    5421    5422                
CQUAD4      4143       1    5414    5413    5422    5423                
CQUAD4      4144       1    5415    5414    5423    5424                
CQUAD4      4145       1    5412    5411    5420    5421                
CQUAD4      4146       1    5416    5415    5424    5425                
CQUAD4      4147       1    5411    5410    5419    5420                
CQUAD4      4148       1    5417    5416    5425    5426                
CQUAD4      4149       1    5410    5409    5418    5419                
CQUAD4      4150       1     758    5417    5426    5388                
CQUAD4      4151       1    5409    5408    5407    5418                
CQUAD4      4152       1    5462    2061    4131    5464                
CQUAD4      4153       1    5463    5462    5468    5469                
CQUAD4      4154       1    5468    5462    5464    5465                
CQUAD4      4155       1    5469    5468    5465    5466                
CQUAD4      4156       1    5408    5463    5469    5470                
CQUAD4      4157       1    5408    5470    5467    5407                
$ ... 118 like lines cut
CTRIA3      4276       1    3763    5485    3762                        
CQUAD4      4277       1    5575    5576    5486    5485                
CQUAD4      4278       1    5576    5577    5487    5486                
CQUAD4      4279       1    5577    5578    5488    5487                
CQUAD4      4280       1    5578    5560    5489    5488                
ENDDATA 58035569
